36
FINAL ENERGY	-921.518746735366
  C   3.71311488289607      9.23302671786195     -0.00000056902426
  C   2.46119997165676      8.54557142040396     -0.00000261605277
  C   2.46119999610126      7.11548654382520     -0.00000449104516
  C   3.70100101507612      6.39968153652302     -0.00000437419437
  C   4.93950201592780      7.11475417986355     -0.00000220189276
  C   4.90888514452740      8.54266344622958     -0.00000113142019
  C   1.22139900524268      6.39968155582726     -0.00000446267692
  C   1.22139900155550      4.96811416303912     -0.00000426487674
  C   2.46120005743087      4.25230919770622     -0.00000427466997
  C   3.70100105927564      4.96811414446661     -0.00000401494265
  C   6.16079618025438      6.37427178350195      0.00000024297191
  C   6.16079621498370      4.99352391742522      0.00000137563158
  C   4.93950208298113      4.25304148094114     -0.00000156001650
  C   4.90888520220026      2.82513222646311      0.00000067513540
  C   3.71311492192222      2.13476900083692     -0.00000007217081
  C   2.46120005659749      2.82222434532446     -0.00000269035097
  C   1.20928506384546      9.23302671833929      0.00000015759243
  C   0.01351477908504      8.54266343736011      0.00000042718336
  C   -0.01710203165560      7.11475417910915     -0.00000137195506
  C   -1.23839616334448      6.37427178596311      0.00000102980482
  C   -1.23839621969931      4.99352394987816      0.00000017822557
  C   -0.01710203183591      4.25304155223903     -0.00000236110512
  C   0.01351483532894      2.82513231128214     -0.00000066312344
  C   1.20928511853056      2.13476907497728     -0.00000070183694
  H   -0.93704745263421      2.28043115558421      0.00000201446842
  H   -2.18542865837660      4.44271250958555      0.00000342095883
  H   1.21281532656399      1.03919741340333      0.00000205246713
  H   -2.18542854500372      6.92508330033050      0.00000463301355
  H   3.70958463996470      1.03919731543168      0.00000273426726
  H   -0.93704751412984      9.08736455134779      0.00000394468582
  H   5.85944746675732      2.28043103707009      0.00000383631779
  H   1.21281528745470     10.32859838121512      0.00000301717290
  H   7.10782863249126      4.44271247843434      0.00000485871374
  H   3.70958464337522     10.32859837710190      0.00000231443427
  H   7.10782857629287      6.92508325512752      0.00000336117163
  H   5.85944743836030      9.08736455598042      0.00000154713819
