38
FINAL ENERGY	-1034.777636353711
  C   3.69521685635750      9.22558612889993      0.07392305769017
  C   2.43768417181123      8.54623160288608      0.06320796203698
  C   2.44418776074754      7.11188456710144      0.04127356276423
  C   3.68668960716307      6.39565623287621      0.03032122663705
  C   4.92502547606758      7.10883688428733      0.04148364671673
  C   4.89000985242420      8.53333900616489      0.06352922633128
  C   1.21123586957600      6.38115406215580      0.02998722074316
  C   1.21854323648952      4.95017974134544      0.00783469096592
  C   2.46067373873649      4.24001391333736     -0.00324528207089
  C   3.69452818961999      4.96352273256825      0.00805184006389
  C   -0.01698923394262      4.22803225609957     -0.00336332414016
  C   0.02040739774958      2.80153727179005     -0.02560666013086
  C   1.21995748795016      2.11711112466867     -0.03637517176056
  C   2.46785822441258      2.81015860830527     -0.02559258153535
  C   4.93616442382704      4.25286724000079     -0.00303508233868
  C   4.91353735396648      2.82495992004815     -0.02540226609000
  C   3.72219419012405      2.12788250372030     -0.03631773443802
  C   -0.03743516140172      7.08197317947877      0.04078677894876
  C   -1.25694986900864      6.33521420642322      0.02937382590457
  C   -1.24639718302829      4.95691059860493      0.00801986942118
  C   6.15587059645663      4.99513824905967      0.00860761776264
  C   6.15014066351572      6.37490529392661      0.03016793671640
  C   1.16419465033421      9.22601951315463      0.07317207275583
  C   -0.02119660470301      8.49798664676791      0.06219121484940
  H   5.83811483341750      9.08200132182694      0.07219871240532
  H   7.09401285138749      6.93072710322362      0.03889330900830
  H   3.71965767587155     10.31775267239541      0.09078642315905
  H   7.10414155854564      4.44681808726181      0.00008773115286
  H   5.86731251511577      2.28624505394089     -0.03385567445733
  H   -0.96018453132006      9.06216622844775      0.07061432333419
  H   3.72393043058707      1.03258080321834     -0.05349230497122
  H   -2.20475349999090      6.88352664518434      0.03787837577204
  H   1.22850507529282      1.02178685888203     -0.05350340724909
  H   -2.18775321041319      4.39700289687013     -0.00064383370944
  H   -0.92735887182618      2.25249224336681     -0.03413040251576
  C   1.03780824768688     10.70695046737904      0.09466752703608
  O   -0.03293662188017     11.29736354461401      0.10238326132353
  H   1.99347985228050     11.28845258971762      0.10404231190780
