37
FINAL ENERGY	-996.594643231979
  C   1.19962924957283      2.14876940843342      0.16387824783588
  C   2.45004814251778      2.82745920987549      0.05055981741682
  C   2.43706608103747      4.22156031990604     -0.21033827105413
  C   1.22618242690177      4.95893233062859     -0.23447884816879
  C   -0.01777265677508      4.25393092154700     -0.11151848118628
  C   0.00672567055268      2.83747839696087      0.05336114530776
  C   3.71370729862070      4.89246511515440     -0.48552030136796
  C   3.71367472503602      6.47591288811542     -0.48544194816316
  C   2.43700319612221      7.14674237274574     -0.21018706893035
  C   1.22615284268796      6.40931750508062     -0.23440566352261
  C   4.98027780513465      7.14903122269648     -0.15797248358517
  C   4.91630500414009      8.54485127919478      0.12911643162049
  C   3.71208790258075      9.21800726628692      0.19185363505550
  C   2.44992348206376      8.54081734797298      0.05084831691416
  C   -0.01783341712460      7.11425329368809     -0.11137507340942
  C   0.00660260036266      8.53068988411865      0.05364612551595
  C   1.19947498627153      9.21944187978479      0.16423306733385
  C   4.98033953418421      4.21937809057880     -0.15812480913131
  C   6.15853286294187      4.97939841577612     -0.15294455257851
  C   6.15850145045978      6.38905668236116     -0.15287226884076
  C   -1.23868914458783      6.37414791574700     -0.09760594049775
  C   -1.23865967474029      4.99398317261002     -0.09767474716691
  C   3.71224213313370      2.15030857314985      0.19149728960842
  C   4.91642916736179      2.82352418054010      0.12882614044677
  H   -0.94664715551736      2.30377274315032      0.13272306823104
  H   -2.18379498339486      4.44285308286997     -0.04218528719248
  H   1.19967398988391      1.06733156611147      0.33847782120442
  H   -2.18384837791082      6.92523149585255     -0.04206200082403
  H   3.69989165296592      1.07395239463910      0.39385375891739
  H   -0.94679514715991      9.06434330898620      0.13306105308047
  H   5.85467406037073      2.28511711172776      0.30348006032015
  H   1.19946902594894     10.30086224588501      0.33893991080087
  H   7.11410010905878      4.45619793399438     -0.03325892027705
  H   3.69969246207723     10.29434297029813      0.39431682320424
  H   7.11404559537265      6.91228782948805     -0.03313117216106
  H   5.85452123247410      9.08328993146406      0.30382693042464
  O   3.72923486737428      5.68425571257964     -1.67786180518110
