37
FINAL ENERGY	-996.605509065152
  C   1.11422309572678      2.05797555925861     -0.21533176766034
  C   2.50882795942964      2.82121834880389     -0.43250391190763
  C   2.46894037654680      4.27437855324977     -0.22703271866106
  C   1.23518533631487      4.95937751198836     -0.18280718317235
  C   -0.01923301690992      4.23902409885150      0.00144452639267
  C   -0.01435890967289      2.85591947951058      0.17456880580230
  C   1.22897727535453      6.39855229061390     -0.13527212689274
  C   -0.00383233366451      7.11575122379072     -0.06825658477005
  C   -1.23121719181055      6.37537571523913      0.05787052717302
  C   -1.23253032449738      5.00833338427485      0.13754820448011
  C   3.70410595015897      4.97842858395690     -0.07128882386218
  C   3.70298331706158      6.40909340964965     -0.04640146273348
  C   2.46488708648890      7.11915226127656     -0.11355375816822
  C   2.46234668547770      8.55329939115675     -0.09339302465905
  C   1.21739591113946      9.23564410879103     -0.10286993071334
  C   0.02011939687407      8.53520415273701     -0.07821580312900
  C   3.77703228301210      2.12470193319930     -0.22698901863339
  C   4.92215181229658      2.82259698378135      0.01852361670765
  C   4.93903264718308      4.26669013715382      0.04948237834839
  C   6.14368947494318      5.00048917189503      0.17775699228180
  C   6.14873321238853      6.38997557363921      0.16803487177909
  C   4.93978937824203      7.12558819896333      0.05472458488357
  C   4.90701837030964      8.55800020759306      0.04594315408338
  C   3.71573611579416      9.24392121155840     -0.03106953399578
  H   -2.17136949933826      6.93397137399949      0.12371548717443
  H   -0.93187105166636      9.07656836674473     -0.04774841254730
  H   -2.17216742931920      4.46352576393139      0.27764034742127
  H   1.21470800440950     10.33108878024336     -0.10018448463205
  H   -0.87044736860402      2.36278044539328      0.64750824778301
  H   3.70814596587291     10.33941758968999     -0.02880580856327
  H   1.17324073417024      1.00832886500815      0.10591770377732
  H   5.85550482287680      9.10268783571264      0.10752392273950
  H   3.78089527901162      1.03637017060510     -0.34215998534874
  H   7.09406862993621      6.93652539469938      0.25432860026266
  H   5.87222865304596      2.29180754710296      0.14617675068664
  H   7.08651208813982      4.45091897990237      0.27505083991256
  O   1.68863226327744      2.30944739603445     -1.49122922163940
