37
FINAL ENERGY	-996.600170536911
  C   1.17289823061856      2.10136534202434     -0.03589723258520
  C   2.46120061635468      2.72176777451904      0.31920078262918
  C   2.46120031706721      4.28123296725530      0.44235520817654
  C   1.19548533449264      4.99191520387525      0.20100557642624
  C   -0.01387569287846      4.26847258897743      0.11212695537278
  C   0.01761496571984      2.82105686718426     -0.02962575702220
  C   3.72691511179987      4.99191568498002      0.20100581556895
  C   3.70940212716161      6.40811778383180      0.10390224393655
  C   2.46119994653414      7.12445606790312      0.08743667662431
  C   1.21299794264765      6.40811730435715      0.10390209216903
  C   4.94705344715963      7.12409923099615      0.01312427664851
  C   4.91133160297351      8.55371612063236     -0.05111065163216
  C   3.71467917867872      9.23619865647516     -0.05205532258545
  C   2.46119964593658      8.54269839395165      0.00213760100369
  C   -0.02465363820146      7.12409826815898      0.01312412436384
  C   0.01106763753387      8.55371518214850     -0.05111045927917
  C   1.20771980076156      9.23619815279831     -0.05205510668225
  C   4.93627645676391      4.26847354997500      0.11212736779699
  C   6.15645219185346      4.99884756384664      0.01756460215153
  C   6.16235555516907      6.38351087760092     -0.01062660583857
  C   -1.23995551044009      6.38350949098359     -0.01062707181493
  C   -1.23405166962555      4.99884615747674      0.01756403533822
  C   3.74950328489775      2.10136596782800     -0.03589713208262
  C   4.90478630769301      2.82105787961702     -0.02962548144203
  H   -0.93426336890522      2.31889108934479     -0.23716226630247
  H   -2.17730687806268      4.44481640629963     -0.04210712451865
  H   1.17163149231771      1.04119695729401     -0.31217759883222
  H   -2.18823512966091      6.92849106166190     -0.07219975703015
  H   3.75077049537783      1.04119766003839     -0.31217778351340
  H   -0.93684071258701      9.09988819550976     -0.10809134523276
  H   5.85666477311402      2.31889246584129     -0.23716207971216
  H   1.21841111829083     10.33014337046565     -0.10964723721340
  H   7.09970758281140      4.44481811953447     -0.04210647310502
  H   3.70398739390787     10.33014386620446     -0.10964765202111
  H   7.11063496888242      6.92849280986367     -0.07219926011086
  H   5.85923970772045      9.09988954151113     -0.10809167049329
  O   2.46120036612158      3.41440937903410      1.58724671084372
