37
FINAL ENERGY 	-996.643826571334
  C   1.21910388342622      2.06376702151993      0.17546721296643
  C   2.48695954992223      2.82180302010598      0.05537745870149
  C   2.45940695227666      4.23724176730954      0.07638640524474
  C   1.19892217174131      4.96735540340240      0.07467649454618
  C   -0.04259078323459      4.28701464151591      0.05159269431481
  C   -0.06977384171921      2.81015070306512      0.17293560721903
  C   1.21186109883323      6.39669945006978      0.03595028599856
  C   -0.02337943743730      7.12489262941357     -0.02304967005572
  C   -1.24158942603342      6.40597050822925     -0.07778107577153
  C   -1.24491587421941      5.01472507591461     -0.04881346009390
  C   3.69295832659377      4.95952390752998      0.03883688276372
  C   3.69439270786916      6.39376765935569      0.04381656704486
  C   2.45531876000932      7.11151855709035      0.04243507463312
  C   2.46053755550541      8.53982117254738      0.02505278751648
  C   1.20884979935259      9.23949172842525     -0.00611773455738
  C   0.01533010874892      8.55974738421868     -0.03598861219486
  C   3.71649229183509      2.14071073894256     -0.04257398447855
  C   4.92174051183525      2.83570299592945     -0.07069672731688
  C   4.93922136558355      4.25018342587842     -0.01742594840097
  C   6.16467429265198      4.99758798358788     -0.02916154170289
  C   6.16052734309629      6.37112834095242     -0.00059084518512
  C   4.93083703797752      7.10888874658623      0.02779683199791
  C   4.90514471674607      8.53262246225266      0.02895895083629
  C   3.70834736763281      9.22586851948511      0.02762397270920
  H   -2.18479469791890      6.95998823264598     -0.13285712653464
  H   -0.93354575625847      9.10583770456967     -0.07233872033571
  H   -2.19420434226019      4.46849210968947     -0.07870986491921
  H   1.22311992372266     10.33486440094835     -0.01575416798375
  H   -0.98306710734673      2.30397356408372     -0.17380327253942
  H   3.70587578290618     10.32134675797056      0.02105839654752
  H   1.23494168728988      1.01913440758814     -0.16964167119044
  H   5.85666930994991      9.07545607762198      0.02346414891906
  H   3.71490209928099      1.04544474263375     -0.07119486971828
  H   7.10364500452173      6.92841696339725     -0.00917631431351
  H   5.87169500834460      2.29316149078009     -0.12396328459634
  H   7.11051376366141      4.44612361658960     -0.06342442174833
  O   0.47522984511351      2.26914808815328      1.39272954167804
