37
FINAL ENERGY	-996.635089921058
  C   3.73477926010274      9.25125710883386      0.04819253655604
  C   2.45820674559232      8.57331990049763      0.01683740982210
  C   2.46748010088686      7.11810202276039     -0.00520263159373
  C   3.68994218361076      6.40760005226607      0.00430330031605
  C   4.94325983291223      7.11928659265320      0.03596272239873
  C   4.91623488088958      8.55910559487324      0.05726436422383
  C   1.22906898975304      6.40819308833920     -0.03665974274952
  C   1.22389855498145      4.97259301628637     -0.05882315536517
  C   2.46678987590412      4.25754460907369     -0.04889121811655
  C   3.69020506040199      4.96739214814443     -0.01755672171996
  C   -0.02193471725763      4.27455569919923     -0.09046986886947
  C   -0.04414323461276      2.76417258757949     -0.11419785912448
  C   1.28983204991980      2.09980314311185     -0.10150645442385
  C   2.47407573133087      2.79419202397993     -0.07094025188596
  C   4.94699298949512      4.25546258138520     -0.00725477932982
  C   4.92867992399827      2.81287391588832     -0.02927888128304
  C   3.75521636498562      2.11553937514905     -0.05952926506652
  C   -0.00712119456699      7.11940704713863     -0.04618775571180
  C   -1.20777514735849      6.40642108210463     -0.07728015636802
  C   -1.21531731047985      5.00230667947477     -0.09921733567413
  C   6.14544048663742      4.98426106752226      0.02379310351998
  C   6.14221220385545      6.38818314164026      0.04491489660146
  C   1.25621558469534      9.27077343390921      0.00777676317421
  C   -0.04011354902481      8.61369844386236     -0.02333768547701
  H   5.87177488797816      9.09448907219119      0.08118007834245
  H   7.09340659148133      6.93132162516634      0.06897803752032
  H   3.73399173740875     10.34619066211584      0.06475993946862
  H   7.09713252629151      4.44220523081273      0.03152287933676
  H   1.24950311149719     10.36559521998554      0.02445530643207
  H   5.88793385120759      2.28398811350793     -0.02109397259115
  H   3.75671344081517      1.02043696096100     -0.07599236561228
  H   -2.13665526350208      6.98635903606673     -0.08371414172206
  H   1.31078376930618      1.00368625952572     -0.11766464022457
  H   -2.17075885022747      4.46540228526090     -0.12351475169527
  H   -0.64463489050491      2.39043951885313      0.74332998616444
  O   -1.11575311126952      9.23949567477971     -0.03091314800865
  H   -0.61442046713434      2.41723698509999     -1.00306154126406
