45
FINAL ENERGY	-1523.661489447684
  C   2.45901266159117      0.27527906444065      1.47652794189204
  C   3.65281472836653      0.37006913809104      2.12209018234411
  C   3.72971439975386      0.53362920052152      3.58846229979130
  C   2.40759075791775      0.45063907153388      4.32477708148149
  C   1.15507485313344      0.29523166768663      3.55884700554650
  C   1.18087926802499      0.26896186986874      2.18172759987773
  C   4.95203644187626      0.20397253965355      4.35262049115817
  C   4.91442596397539      0.04036426635127      5.70861602849484
  C   3.68555417998100     -0.06236968565748      6.46038219449069
  C   2.42842638646263     -0.14602521698885      5.69028212239972
  C   1.09549043781470     -0.28250108139770      6.43159194304895
  C   1.13311195091023     -0.29252557603757      7.91134946939182
  C   2.37765006692277     -0.36331116358889      8.53158472211768
  C   3.61258259201253     -0.26118825283285      7.82962733471590
  C   -0.15316137254506      0.10079010396940      5.74686779765610
  C   -1.36674957479178      0.05382819511667      6.42853420766634
  C   -1.32795385983030     -0.11492939683064      7.86291447645681
  C   -0.15099660541976     -0.24632114350665      8.57952986809893
  C   -0.09458641156380      0.42599485105439      4.32302295402409
  C   -1.43022647339073      0.32773980106806      3.49912376818351
  C   -1.29208667580325      0.02061474572456      2.07039767811025
  C   -0.07558891973369      0.09155716813442      1.44715240591175
  C   -2.61667947821971     -0.02378072770741      5.64970558827740
  C   -2.60951173646057     -0.05263096519410      4.27634613714147
  O   1.74932688250946     -1.40715171824524      5.76128854743448
  O   3.04453005129619      1.71445257104399      4.14633999173086
  O   0.09083189796541     -0.08478555483062      0.10481620437607
  O   -0.86854175022706      1.57759688484978      3.94448005535372
  C   -0.27719930140165     -0.36869085126213     10.05832995183333
  O   -1.34117135198360     -0.35798917305789     10.65658242680336
  C   -3.93606565365204     -0.18791202589683      6.33875275328081
  O   -4.17948687704254      0.06468550814198      7.50534839686578
  O   -4.90922932189597     -0.63899374555652      5.49715348043743
  H   4.59171139833933      0.28539162251960      1.56436969085858
  H   5.90123931854745      0.15809835440069      3.80881062740593
  H   5.85129528319601     -0.08509508723186      6.26369489756822
  H   4.54148883155569     -0.29592913222693      8.40962982662468
  H   2.42841178704745     -0.44999980726683      9.62026300500975
  H   -2.26318115481348     -0.11997874845496      8.42625763936507
  H   -3.51943485931873     -0.33384686179457      3.74013480211068
  H   -2.19041644071847     -0.26605896916705      1.51175621410302
  H   -5.72297849864888     -0.66903380098557      6.04219740594141
  H   -0.78298673828759     -0.20462334243368     -0.30909338017059
  H   0.68181642090797     -0.48251085873612     10.62484620749938
  H   2.42993649564043      0.16425626271812      0.38984195729040
