39
FINAL ENERGY	-1146.804303448881
  C   1.16914249396633      2.09021041724930     -0.04535193882151
  C   2.45139043828149      2.75987607254765     -0.03027826578710
  C   2.43149521166186      4.23443724153870     -0.13280950501290
  C   1.21755649150105      4.97424772239264      0.32720625165404
  C   -0.08196861893215      4.20912501921391      0.32538737564131
  C   -0.01938117561096      2.75858543934630      0.02231209039933
  C   3.73172674049888      4.98510835779687     -0.13322395742393
  C   3.69795395934719      6.40630775575941      0.32664670331618
  C   2.42955193927415      7.14200697200877      0.09719627684731
  C   1.21456241100576      6.44049519534336      0.09747032826982
  C   5.01028634634083      7.14918579125783      0.32524975458436
  C   4.93374638977608      8.60603141011789      0.07459204269019
  C   3.73862701624476      9.24648622993557     -0.03464315783881
  C   2.45484267898411      8.55493574506599     -0.00252717691788
  C   -0.02171104638658      7.12505035113959     -0.00242782991707
  C   0.00872043185594      8.53663988301780     -0.10652548123562
  C   1.21713964128133      9.23436905895196     -0.10650944967812
  C   4.99889099731791      4.23076391029287     -0.03067712008611
  C   6.21994816513895      5.00642857445146     -0.04536097444644
  C   6.23536547267406      6.36989170846867      0.02249227970754
  C   -1.26244462131766      6.35898247032204     -0.03492229609145
  C   -1.30531308972660      5.00374825804090      0.07424346183361
  C   3.68506914433117      2.13193371840096     -0.06046719514210
  C   4.92596403492200      2.84840225943126     -0.06058209914245
  H   -0.96672025053398      2.21988571038279     -0.08671073672902
  H   -2.25350887291498      4.46635854274926     -0.03615497031676
  H   1.16978098469234      1.00009437124750     -0.16182606118595
  H   -2.19252947933962      6.91749641478400     -0.19033680244374
  H   3.72029218468317      1.03662652213281     -0.05912231952899
  H   -0.93630290818354      9.08543823451258     -0.18301406961341
  H   5.85697954697170      2.27035748277962     -0.05908378729074
  H   1.21431202297145     10.32719712894257     -0.18291154352360
  H   7.16375434090525      4.46082479342653     -0.16132863872389
  H   3.71997577238456     10.33128595833163     -0.18967874990091
  H   7.17562619132235      6.92099992713142     -0.08580186457470
  H   5.87322191706394      9.15864203855994     -0.03529753622364
  O   0.64741789584243      4.54979507545368      1.56427362572619
  O   2.98456837720115      4.77717698372748     -1.35097239809793
  O   4.35034382450387      6.68746225374647      1.56384973502488
