42
FINAL ENERGY	-1223.212172356055
  C   1.19024952768443      2.13171913436473      0.21853887856065
  C   2.47230230383106      2.83728600831422      0.08612560479087
  C   2.48089027382473      4.20850956336594      0.05621671467855
  C   1.20285751994434      4.95974815243365      0.33348929444137
  C   0.03284784542650      4.25301978822297     -0.36171808819168
  C   0.02419562780296      2.78494082194414      0.01505880314373
  C   3.73876318525182      4.93030402991731     -0.36825002308419
  C   3.73151725812978      6.41354156953581     -0.06138484548901
  C   2.46886077419862      7.11509750014495     -0.02198032549721
  C   1.26049830962035      6.43922520879895      0.03179323030838
  C   4.94149487036570      7.07372964780110     -0.03082939084334
  C   4.97363807401297      8.55847896771408      0.03917808839684
  C   3.66937288197983      9.24963701143623      0.04052568734224
  C   2.48216071844612      8.57354457079921      0.00119244460773
  C   -0.01883717247873      7.15329898399435      0.02959408043255
  C   -0.04315389673921      8.53004085338245      0.01906077544843
  C   1.17979807769438      9.33471547890987      0.01646004277437
  C   4.95707275708310      4.24373265091040      0.27582410302666
  C   6.23156740909107      4.99443087928021     -0.01342088736533
  C   6.20017928209499      6.34272503827202     -0.12593061736878
  C   -1.24758515746052      6.36185807013512      0.01728944346708
  C   -1.24662595244851      5.01854810484699     -0.14760143693033
  C   3.73988804703712      2.11180970388982     -0.07424916480897
  C   4.92898864340432      2.76004705582342     -0.00190142548026
  H   -0.93660586040147      2.26043708287076      0.06430967601275
  H   -2.19286496426418      4.46486690105237     -0.16983349465764
  H   1.20045117940215      1.05914318742110      0.44182349849506
  H   -2.19278787152280      6.90475437490618      0.12380833101652
  H   3.70342520840703      1.02686521217493     -0.22458460473835
  H   -0.98901343637319      9.08075384750276      0.00630329287202
  H   5.87608434280254      2.21509197872488     -0.08682858196227
  O   1.15502371144810     10.56995829857106      0.02126591632548
  H   7.17690624738166      4.44148992960841     -0.06111138022769
  H   3.67183353591717     10.34372559966604      0.07835906756488
  H   7.10675586290792      6.93987551717879     -0.26087328062062
  O   6.03818199888009      9.19088337337778      0.06752657461150
  H   4.77467001613015      4.34494253476700      1.37796055785366
  H   0.26325059557975      4.29088098164270     -1.45330201768230
  O   0.89561017541278      4.89006779765035      1.75794318335523
  O   3.79524390242429      4.89431366892563     -1.81576655476047
  H   1.66107225427874      5.28113240394658      2.22000741863129
  H   3.78789789379206      3.94621551577478     -2.05652958844937
