39
FINAL ENERGY	-997.825763775206
  C   1.19780948258337      2.08626629128988      0.00924248895472
  C   2.50637254375965      2.75723805526984      0.34469177961175
  C   2.48033545341935      4.25464155481007      0.07749675039575
  C   1.23507994596002      4.95431623959857      0.04249517146676
  C   0.00045132417656      4.23656903955076     -0.02420563359827
  C   0.03897014931708      2.78331788199065     -0.08687798431277
  C   3.68987277033082      4.94907592249582      0.02768454886829
  C   3.69594109729198      6.38882795608465      0.02748800848516
  C   2.45821979679072      7.10251717667588      0.04011279720153
  C   1.22406948508453      6.38517637192730      0.02662633422806
  C   4.92924919617853      7.10696707011861      0.03098331599011
  C   4.89925769365103      8.52057046382740      0.04953496888297
  C   3.69409479514907      9.22043564797278      0.05423802289613
  C   2.45457081048147      8.53899339990978      0.04581505157129
  C   -0.02225257402037      7.09632970883224     -0.00199362571955
  C   0.00538707704905      8.53241966523262      0.00702245858502
  C   1.19342224950105      9.22407141941514      0.03373828034916
  C   4.96791805273980      4.22315670360614     -0.05344295428034
  C   6.19313323554665      5.00162259046628     -0.02602496697992
  C   6.17411336067128      6.36479404743805      0.01864356842011
  C   -1.22660641909689      6.35476483594433     -0.04349624183506
  C   -1.20952748319752      4.95897889347524     -0.06662386164787
  C   3.70095505668525      2.07483001629718     -0.32355895548460
  C   4.96724546133640      2.86519376493181     -0.23226634083075
  H   -0.91259702870656      2.25713284107143     -0.22938768348027
  H   -2.15357276130948      4.40503699126307     -0.12157527953963
  H   1.20363510973098      0.99111729710265     -0.03636145773291
  H   -2.18091347447028      6.89190151038068     -0.06890454704158
  H   3.81748886365604      1.08460565348130      0.15354349827261
  H   -0.94800238138612      9.07191430357561     -0.00947951689078
  H   5.91898381248980      2.34299235234359     -0.38777551981596
  H   1.19523201974681     10.31964150315954      0.03995239240248
  H   7.14479947247146      4.45981262791586     -0.05666152625832
  H   3.69699122453513     10.31597657859430      0.06161933416981
  H   7.11153122310220      6.93171962497677      0.03215440774641
  H   5.84815972260755      9.06823092232014      0.05733995381271
  O   2.74999676214008      2.57153647289113      1.77570175767720
  H   2.02397951452907      3.03585777298425      2.23357100141949
  H   3.46325735947445      1.88040183077858     -1.39338179595893
