39
FINAL ENERGY	-997.814737683424
  C   4.91062741718333      2.81571093000280     -0.06175627512217
  C   4.94224322186123      4.28021574738790     -0.04189685142527
  C   3.73080012261641      4.99362395956354     -0.09902290550770
  C   2.46120075952803      4.22203651197123     -0.39851949615730
  C   2.46120000246345      2.87896025357867      0.33492052225441
  C   3.75266240189068      2.13537740602037      0.09434395765209
  C   3.71115357717789      6.40833562682402     -0.05458427566277
  C   2.46120172246931      7.12743384735218     -0.05210018768528
  C   1.21124936378589      6.40833656728968     -0.05458448488822
  C   1.19160181937186      4.99362491182880     -0.09902343230568
  C   2.46120235076569      8.54469981777506      0.00467084645953
  C   1.20775241518285      9.24269219758793      0.04651240628833
  C   0.01115431902395      8.56264288024568      0.06135642568572
  C   -0.02613681660641      7.13098350052538      0.02323166324191
  C   -0.01984185033481      4.28021765155462     -0.04189736052811
  C   -1.23899140917701      5.00839579330037      0.03610326975178
  C   -1.24164632709689      6.39570173336753      0.05908958372903
  C   4.94854032112215      7.13098166022816      0.02323156962177
  C   4.91125032804049      8.56264110073347      0.06135578038156
  C   3.71465276766251      9.24269132161112      0.04651183380137
  C   6.16139332457122      5.00839297915592      0.03610339443227
  C   6.16404928147459      6.39569895916358      0.05908942905478
  C   0.01177269513489      2.81571282643478     -0.06175681515843
  C   1.16973715659511      2.13537840745491      0.09434345288196
  O   2.46120129516597      3.90729312158018     -1.81918270531208
  H   5.85870227488429      9.11075909962534      0.10884455021327
  H   7.11127543398520      6.94375557060881      0.11172497694022
  H   3.70116079980999     10.33759691141707      0.08215735719707
  H   7.10748355426994      4.45720186538607      0.07668463211018
  H   1.22124512700013     10.33759777269127      0.08215813303042
  H   5.86102532716004      2.28225730033142     -0.17644531112786
  H   -0.93629719556904      9.11076162345819      0.10884561310780
  H   3.74054883616140      1.03951939418375      0.11589828368062
  H   -2.18887207288891      6.94375903773394      0.11172562355469
  H   1.18184982804589      1.03952040044877      0.11589769915341
  H   -2.18508201745406      4.45720532645829      0.07668481306699
  H   -0.93862570690499      2.28226002359892     -0.17644582477739
  H   2.46120160937939      4.76508369407021     -2.28314297270390
  H   2.46119994224835      3.14877226745004      1.42120608107098
