39
FINAL ENERGY	-997.813435472057
  C   1.18149149676185      2.11865081651820      0.04550545182695
  C   2.46120092132750      2.85778783119265      0.39055271292339
  C   2.46120068870481      4.20030272213822     -0.34552273897683
  C   1.18933964695761      4.97636385247245     -0.13891701254943
  C   -0.02166978963794      4.26580965146272     -0.11141567189573
  C   0.02768484682841      2.80306364725585     -0.14769249445862
  C   3.73306125207093      4.97636449825007     -0.13891678536370
  C   3.71329418453934      6.38872141235459     -0.07335669260752
  C   2.46119985593751      7.10564580047371     -0.05676461861162
  C   1.20910592314490      6.38872077084589     -0.07335684697354
  C   4.95218142099060      7.10875853447175      0.00007312135165
  C   4.91275264242734      8.53978166441291      0.06238470384256
  C   3.71532865665074      9.21795673663041      0.06862868558288
  C   2.46119945402426      8.52139784047747      0.02095310305182
  C   -0.02978168774700      7.10875722939925      0.00007299695037
  C   0.00964627175072      8.53978031941041      0.06238461082006
  C   1.20706985658138      9.21795604099782      0.06862865654052
  C   4.94407098679163      4.26581085923103     -0.11141555905796
  C   6.16679789884255      4.98874792596391     -0.04736830783186
  C   6.16982185396266      6.37458947656267      0.00369290289158
  C   -1.24742175389223      6.37458760638513      0.00369289423488
  C   -1.24439710114778      4.98874608448553     -0.04736836068199
  C   3.74091066949051      2.11865139445666      0.04550529579271
  C   4.89471700673679      2.80306483217122     -0.14769260918931
  H   -0.91514276154786      2.26386324047219     -0.30057998787167
  H   -2.19021761585786      4.43558658130117     -0.03424749444152
  H   1.18938378948925      1.02151975278683      0.06387406789821
  H   -2.19455426769098      6.92293500015623      0.05152690538407
  H   3.73301879357760      1.02152031845606      0.06387313739900
  H   -0.93737011710128      9.08867981270260      0.10854053260605
  H   5.83754477345970      2.26386487890347     -0.30058067653321
  H   1.22071925683226     10.31225103740428      0.12128484017181
  H   7.11261866975171      4.43558887485280     -0.03424763141750
  H   3.70167855905123     10.31225173215696      0.12128485048127
  H   7.11695407992821      6.92293735415821      0.05152682599362
  H   5.85976866666719      9.08868177320563      0.10854066140115
  O   2.46120072712610      3.15898686581794      1.81279184342162
  H   2.46120085843912      3.89785835233140     -1.42188439466577
  H   2.46120138577851      2.30552087727370      2.28366008256162
