74
FINAL ENERGY	-2181.385186183550
  C   -2.68534140689742      0.00025587576964      5.33655386725453
  C   -1.46906406200316      0.00025184165778      6.08624773023788
  C   -0.22826599762948      0.00021181359526      5.35919345103579
  C   -0.23277748593829      0.00020323536359      3.92840221948239
  C   -1.47219686366100      0.00021943190741      3.19295393237486
  C   -2.71437874182208      0.00025096501936      3.95168894338213
  C   1.00290406230893      0.00016973998998      6.08013785125807
  C   2.24646332081912      0.00012637176352      5.36986295369454
  C   2.24908247174085      0.00013134025650      3.94413543737486
  C   1.01012770832729      0.00016969472755      3.22288787137623
  C   3.48861652829813      0.00009194236632      3.23654225968096
  C   4.72151211813759      0.00004160233700      3.95441249477745
  C   4.71677103459670      0.00002994906639      5.38054274384139
  C   3.47866867160034      0.00007450521748      6.08821373732141
  C   5.95454878347032     -0.00002879353993      6.10175402147197
  C   7.19246643638476     -0.00007557309234      5.39212550493081
  C   7.19780686795395     -0.00006036130409      3.96314916951278
  C   5.96559584836510     -0.00000175099074      3.24342767084130
  C   8.44320911045416     -0.00010629079862      3.24507535921755
  C   9.66773241385041     -0.00016902177319      4.00119383363419
  C   9.66261352158651     -0.00018561091915      5.37401079412335
  C   8.43207676508572     -0.00013893556600      6.12029663390506
  C   5.94738938213574     -0.00004379587700      7.52841309141217
  C   7.19205698087644     -0.00010736127975      8.24766123154404
  C   8.40280360161909     -0.00015396272439      7.52832409228256
  C   5.97056088702766      0.00001102615036      1.81667238081767
  C   7.22106039923182     -0.00003160270566      1.10743303211868
  C   8.42563053267939     -0.00008879995864      1.83686449475992
  C   4.73614682729207      0.00006268417277      1.09727706947039
  C   4.73673302068060      0.00007392965667     -0.34026355812469
  C   6.00401077239934      0.00003474068113     -1.02262242440438
  C   7.19008610813840     -0.00001605719689     -0.33149917380382
  C   3.49667466795942      0.00010009713664      1.80404060153527
  C   2.26397769352045      0.00014163026624      1.08702284292799
  C   2.27408817762373      0.00015075335453     -0.35035099947156
  C   3.50856976572279      0.00011996085326     -1.02883304205327
  C   1.02319892315288      0.00017021827266      1.79624088330043
  C   -0.21801812807571      0.00020061934303      1.07726035337528
  C   -0.17813636757921      0.00021191235204     -0.36090248220065
  C   1.01314079254275      0.00018969556771     -1.04345099245591
  C   4.70692390130902      0.00000300308178      8.23778890387783
  C   3.47302778418464      0.00006261293071      7.52058791400729
  C   2.23349607959561      0.00010720811334      8.22811714605591
  C   0.99861717210431      0.00016238266936      7.50890103946936
  C   -1.43591698888853      0.00022064937354      1.78619462497818
  C   4.69620362893986     -0.00001287277204      9.67530164051215
  C   5.95758268572088     -0.00007670090879     10.36797967153843
  C   7.14921179839140     -0.00012214315200      9.68603043810404
  C   3.46222080180523      0.00003274177431     10.35437193461313
  C   2.23395120553285      0.00009211780441      9.66624128400678
  C   -1.45419664580320      0.00025125070825      7.49588890615383
  C   -0.25032935006275      0.00020374321181      8.22304125507623
  C   -0.21856276763662      0.00018917985221      9.66198448960985
  C   0.96816337095018      0.00013595004221     10.35110354859880
  C   -4.06353485776416      0.00024727828489      3.34012416002121
  O   -4.34126114651517     -0.00236749485777      2.14926998782861
  H   8.09783972338555     -0.00017165250543     10.23385272188623
  H   5.94892788587747     -0.00008986671887     11.46333848882306
  H   3.45806273179720      0.00001971746426     11.45027971329658
  H   0.97039104405821      0.00012299982233     11.44648469342758
  H   -1.17126432082880      0.00021881604647     10.20245882988496
  H   -2.40653852853821      0.00027534929157      8.03793698997729
  H   -2.38207168859035      0.00025609299593      1.24140359309136
  H   -1.12889088571111      0.00023899750412     -0.90423514329217
  H   1.02216534835725      0.00019811055751     -2.13880295303148
  H   3.51287016277085      0.00012755173783     -2.12475504953406
  H   6.00390723743424      0.00004398359497     -2.11802913746122
  H   8.14314662715261     -0.00004788182753     -0.87148946925279
  H   9.37708727333423     -0.00012336473914      1.29298466756495
  H   10.61627292273642     -0.00020481808667      3.45327616967489
  H   10.60692340775738     -0.00023474103748      5.92916487985300
  H   9.34967859883537     -0.00020338526917      8.08015177656186
  H   -4.88392897988900     -0.00229811752741      4.10960792540722
  H   -3.63670537377898      0.00025564342205      5.88372047691148
