73
FINAL ENERGY	-2143.202755337557
  C   -0.01322228912295     -0.26974696661808      0.09579789420809
  C   -0.00353241799665     -0.14954778242789      1.52706899518774
  C   1.24498952553273     -0.26993417656124     -0.63066327637951
  C   1.27360758915145     -0.29240459205112     -2.03641656830431
  C   -1.24495676325722     -0.29234334073269     -0.58224918332544
  C   -2.47730165197480     -0.12706178301314      0.10642562746819
  C   -1.28288776888864     -0.56421693032242     -2.02754880580521
  C   0.04089534027542     -0.56430248083475     -2.79189164108419
  C   2.47973700100177     -0.15009656923431      0.09333123633415
  C   2.48619542485830     -0.12729251361499     -2.75932098708254
  C   0.00817256192040     -0.26412676408296     -4.23397542561026
  C   -2.51556191357245     -0.26435300337075     -2.77685239245439
  C   2.47754965296410     -0.06034022800515     -4.19152960087347
  C   3.71855638573856     -0.03353332872663     -2.04446463608614
  C   -1.22830369403871     -0.21312445414589     -4.91254722413240
  C   1.23522923262748     -0.09500546361806     -4.91648028735094
  C   -3.72017617560681     -0.09556279660339     -2.05543128029266
  C   -2.48501153821728     -0.21338314015795     -4.18695487102353
  C   -2.47435101895229     -0.03273605429049      1.53105979583018
  C   -3.71338565475992     -0.06051199950344     -0.61712245963709
  C   1.23419006734243     -0.10553977741782      2.23657810159527
  C   -1.23737446834907     -0.06293311511732      2.23990378808997
  C   2.47537855174971     -0.10594178072246      1.51995230312564
  C   3.71398706257071     -0.06401788679857     -0.61882820008071
  C   4.95666328353200      0.08487263607868     -2.76891895850569
  C   3.71164800157133      0.08394714073281     -4.89695883757834
  C   1.22932002087119      0.04141729690920     -6.34863716313555
  C   -1.23094734792358     -0.06076585446146     -6.34396287555578
  C   -3.72345784647756     -0.06158809791566     -4.90489923784546
  C   -4.95761941990918      0.04014374209715     -2.77656058141127
  C   -4.94133636048805      0.08374018395205      0.09893689333827
  C   -3.72078748098098      0.08602087021719      2.24108250020918
  C   -1.22944524779860      0.02125756566272      3.67906551021804
  C   1.23123128014109     -0.02939821478563      3.66917166132886
  C   3.71759878659666     -0.03038103775007      2.23367183329403
  C   4.95646540264854      0.01934888401426      0.10756634435101
  C   4.92547912910670      0.13956612801632     -4.17143254053561
  C   6.18328452035500      0.14894153097241     -2.01481000108270
  C   4.93043786866760      0.01899291001274      1.50992904627411
  C   6.18250721251471      0.11465520643348     -0.64389470460466
  C   3.67649748508350      0.18513630366453     -6.33499758625159
  C   2.49224562690143      0.17061293990822     -7.02765210501751
  C   -0.00351078679773      0.03705283408689     -7.02786593198662
  C   -2.49616024317557      0.01228390951115     -7.02873914586491
  C   -3.68395564118458      0.01178841695654     -6.34297962555991
  C   -4.92947864822632      0.03556574413423     -4.18382743925386
  C   -6.17715383732076      0.16894883140641     -2.02232881262557
  C   -6.16926889410855      0.18409000353204     -0.65042364842343
  C   -4.91987426388019      0.14010382162032      1.51285159595306
  C   2.49268531799496      0.01126364237125      4.35677035547384
  C   3.68238955188138      0.01071635395597      3.66990442470455
  C   -3.68090205916677      0.15110726070731      3.68037021837231
  C   -0.00191944487329      0.02092067348115      4.35766607272531
  C   -2.49321217091449      0.11730046215839      4.36509598527172
  H   7.12618129919964      0.16813799502208     -0.09016231303733
  H   7.12732563579041      0.22886357689269     -2.56467582345452
  H   5.86745105452248      0.24065840197141     -4.72231356526594
  H   4.62672546175125      0.28766677528541     -6.87025976064437
  H   2.48960949781712      0.26170702814787     -8.11928239930637
  H   -0.01042389769243      0.13529060956423     -8.11941256262763
  H   -2.48992739656148      0.09503932154751     -8.12102471441776
  H   -4.63306843527281      0.09411181278067     -6.88368863364840
  H   -5.87142148684148      0.13320697754182     -4.73550977434796
  H   -7.12130660318585      0.25928381380449     -2.57038361869033
  H   -7.10791449329359      0.28639079275480     -0.09505708302521
  H   -5.86799026919629      0.24131997637637      2.05306788589897
  H   -4.62907158788015      0.23151887973581      4.22302116108915
  H   -2.48545013917975      0.17166965674555      5.45917283976759
  H   0.00384292224240      0.08114491368416      5.45196761961886
  H   2.48741045567795      0.05438269174275      5.45133329886188
  H   4.63297630219475      0.05336414148663      4.21258371156438
  H   5.87533015293623      0.07854142622999      2.06196706021423
  O   -0.62834330866455     -1.79433995102335     -2.42237747714153
