76
FINAL ENERGY	-2219.503977157910
  C   0.02560742359642     -0.21714828615715     -0.00365429247747
  C   0.00781742316486     -0.30304439756869      1.51423506782855
  C   1.26745105771174     -0.95398307317596     -0.62491636532423
  C   1.37864222375569     -0.74306828279849     -2.12652527325680
  C   -1.35338005454551     -0.55309873522346     -0.57938960902827
  C   -2.50905669104920     -0.05476042945103      0.08785556759011
  C   -1.55426049379027     -1.06652818661989     -1.84231912996256
  C   0.32646864667694     -1.11369924984161     -2.93398685573763
  C   2.52706591690000     -0.51371615540897      0.09742699582110
  C   2.52160390810577     -0.20399109537952     -2.77596473510668
  C   0.09953176261397     -0.65860743814874     -4.25570588850102
  C   -2.61709088291147     -0.67195727260016     -2.69751786019689
  C   2.47737529509503      0.02002375036712     -4.18739454945530
  C   3.71992981632309      0.00348899007999     -2.03502803276095
  C   -1.21264155215136     -0.64299562894848     -4.86614378695591
  C   1.26175851247501     -0.16630138910880     -4.92054200125523
  C   -3.77817405613709     -0.18037739796316     -2.03562000472326
  C   -2.48618720351673     -0.66201559888972     -4.13700449595372
  C   -2.44995591617428      0.16624968015937      1.49249160275130
  C   -3.73861840179822      0.05753307009096     -0.62546014459591
  C   1.22387644636768     -0.41413049931223      2.21430278271463
  C   -1.20620551182762     -0.03664698715665      2.19855527369217
  C   2.49469056653207     -0.43447046789316      1.50208180597575
  C   3.71553524301169     -0.18839796160814     -0.60298200484404
  C   4.90076360600108      0.41064446251373     -2.72400088273283
  C   3.66775606249068      0.46122191937204     -4.86585541098687
  C   1.20151881904141      0.11575399066362     -6.32811459243935
  C   -1.22803483044607     -0.36183614432007     -6.27900530790749
  C   -3.70587378778832     -0.40449493302685     -4.86148795813165
  C   -4.97820945516534      0.05137832642230     -2.78817022510200
  C   -4.92765515532253      0.46239040280740      0.07275671784986
  C   -3.65331040343629      0.49056105832140      2.19026242201759
  C   -1.20417685368032      0.04955584542307      3.63462168947584
  C   1.22377101345843     -0.32469512422274      3.65195393270393
  C   3.72059240980668     -0.26860491542745      2.23665508688611
  C   4.93412290205116      0.04088148179160      0.12965724348006
  C   4.84725612366011      0.63668739138591     -4.12414653050702
  C   6.11128477867059      0.58134468992470     -1.95952550522363
  C   4.92057201015212     -0.06863087982761      1.53173588368594
  C   6.12485321300158      0.39679419491127     -0.60054960295937
  C   3.58571885704762      0.70414030716706     -6.28710377289361
  C   2.41318024729905      0.54394516348399     -6.98342775973333
  C   -0.02945160682519     -0.04971770716841     -6.97600449277516
  C   -2.48395228152382     -0.31519569859950     -6.97655403471544
  C   -3.67252191128674     -0.33839791639897     -6.29679798779836
  C   -4.92055465181671     -0.12748476158436     -4.17683542721456
  C   -6.15921292668259      0.45252230871402     -2.06191041873063
  C   -6.13542508857689      0.63864704623177     -0.70089137910717
  C   -4.85933146004086      0.66322510621348      1.46210855965523
  C   2.48405688824672     -0.33629962506060      4.35234505814847
  C   3.67489924161885     -0.28717910363472      3.67729844273061
  C   -3.60033927349784      0.59613608258575      3.62720705652982
  C   0.00721031143792     -0.12490355117469      4.32804853615111
  C   -2.43540032036054      0.36646210791739      4.31407880821669
  H   7.05152186660549      0.54261373254918     -0.03468159053522
  H   7.02603762740069      0.87276025710683     -2.48696916900866
  H   5.75745337352874      0.96375384910193     -4.63959906689712
  H   4.49160420656101      1.03261301928044     -6.80836698349495
  H   2.38061200467226      0.74471734327756     -8.05983741626324
  H   -0.09503030028023      0.13797162472076     -8.05376263137163
  H   -2.46910715900203     -0.19041235654531     -8.06467209460084
  H   -4.62117753588439     -0.23213403390302     -6.83402427118752
  H   -5.82512185750350      0.02926708816039     -4.77541557672804
  H   -7.08755060443167      0.60987514075604     -2.62184974423475
  H   -7.04762263085390      0.94078215464355     -0.17463565068035
  H   -5.76736851688484      0.94656245125858      2.00650746727091
  H   -4.51975833995961      0.84720574235371      4.16721433118798
  H   -2.41762661887921      0.43665716813626      5.40721089684413
  H   0.01297377992337     -0.04352310133967      5.42108223465908
  H   2.46767720190351     -0.32216654840584      5.44761015393594
  H   4.62121094499914     -0.23260508067934      4.22641231059041
  H   5.85518903689813      0.05805743639233      2.08971478551735
  O   -0.62656257599000     -1.93314271259266     -2.37284831810094
  O   0.16900156372216      1.20498436955197     -0.25946819576261
  H   0.11221362723372      1.31484164846586     -1.23020406721481
  H   1.11546695025895     -2.03665667513755     -0.42772861873565
