104
FINAL ENERGY	-3429.056785510331
  C   -2.42749687053853     -0.45448998467696     -7.00373688512738
  C   -1.17800548393009     -0.47249094493163     -6.35590683312084
  C   -1.15967288997657     -0.09427942572569     -4.88630660573019
  C   -2.48090357463761     -0.50327825681640     -4.17163849581909
  C   -3.73906048989176     -0.11461255694811     -4.93715937726726
  C   -3.64353881835756     -0.21062458217146     -6.33684718649041
  C   0.09818476361920     -0.56379281412962     -4.12088513875407
  C   0.02003405909587     -0.26049909912763     -2.65857867225681
  C   -1.34701215675669     -0.34464508006030     -1.91074322387593
  C   -2.50192318851864      0.09259441177457     -2.77098459045664
  C   -1.27475940442797      0.44204797269038     -0.61566629460073
  C   0.00840817893566     -0.00696234278652      0.11098218899916
  C   1.14018291525470      0.81883628664895     -0.51701045445046
  C   1.15315440518667      0.52706848945605     -2.04499529952104
  C   2.47899126435980      0.61576059858277      0.20446187500256
  C   2.50312406426585      0.12104804026151      1.60884606700828
  C   1.23415871927450     -0.43073661983378      2.26779841161972
  C   -0.03246064542708      0.20061850397391      1.63633656333316
  C   1.21914312619635     -0.31029459656406      3.77557144197914
  C   2.48883821910871     -0.44768654636399      4.37550743217009
  C   3.68983347225884     -0.55870704145421      3.62914733604144
  C   3.76993316784495     -0.34083545819368      2.23410430579974
  C   3.76258826886617      0.71700481356138     -0.62996734355243
  C   4.95977008975148      0.05749638113030      0.07599212387643
  C   4.92662627840755     -0.33335961860188      1.42933062988771
  C   -1.28464020987808     -0.38684310138702      2.25637501836578
  C   -1.27894280427338     -0.37160563407317      3.74253608011213
  C   -0.03607319171698     -0.32406474715155      4.42089567910269
  C   -2.56514866442912     -0.21445869603933      1.51779690467768
  C   -3.84485334158571     -0.06569859580063      2.27237923963529
  C   -3.76105172216031     -0.22039649014023      3.67630639503683
  C   -2.54656047909396     -0.37011090983561      4.37157615301519
  C   -2.59204263997665      0.49703107137951      0.17503376558232
  C   -3.82049708874522     -0.09144148833659     -0.58766688994400
  C   -5.08401593587533      0.32740984396110      0.13921092983065
  C   -5.02890674463937      0.25441885339319      1.55179777289135
  C   -3.77576866061803      0.29686004142145     -2.06537765744150
  C   -5.04147985011672      0.22526947188130     -2.83203227855271
  C   -6.21715798265803      0.40910252713749     -2.07235639248708
  C   -6.22819972268380      0.51353880856309     -0.66067009733940
  C   3.63260362142007      0.16163228991169     -2.07340520984580
  C   2.40162757584561      0.67342079620062     -2.84713918169396
  C   2.40037636357283      0.53170672096592     -4.40001792145943
  C   1.44236069503994     -0.56018086853474     -4.89495720704006
  C   -4.94626383740490      0.11064614234435     -4.23796941783348
  C   4.94810109113339      0.33422354339979     -2.82822350481927
  C   6.13565009953740      0.20977953683201     -2.08354203292968
  C   6.13507277929362     -0.01148456952432     -0.69900979805355
  C   4.93508010931031      0.33956372576708     -4.23411236736873
  C   3.77176707626084      0.28091959132599     -5.01302365497669
  C   0.05108211371064     -0.55665558079255     -7.03781604112509
  C   1.30177626462033     -0.44190908365414     -6.41094291086373
  C   2.53304829494097     -0.26371694599863     -7.08938275926499
  C   3.73910880794727      0.00575531144967     -6.40295113758164
  O   2.55102233445094      1.53623526929484      1.32441673005677
  O   1.22362422686576     -1.87683636476918      2.01889871541924
  O   -1.91101809867400     -1.49838440896652      1.59128305910537
  O   -0.09867538376908      1.55830001561596      2.02316287166993
  O   0.34662377127137     -1.35924267023534     -0.23950442335447
  O   -2.80015424018298      1.89617481962829      0.40119310983533
  O   -3.92843730681079     -1.50799754947192     -0.50776630824284
  O   0.78699478253034      2.19660757081662     -0.35898184284637
  O   0.23290514998865     -1.59400127112115     -3.15468400399773
  O   -1.63339690947341     -1.73780280901628     -1.63736401388001
  O   -2.95102969238312      1.41581040596194     -2.52294832750245
  O   4.02700101265813      2.11703659917632     -0.80256699683682
  O   3.38381044558103     -1.24569117525561     -1.91642617839618
  O   1.58945936572722      1.80891565938372     -2.58466880779080
  O   -2.53845628355380     -1.92957843740802     -4.11259588695625
  O   -1.07968181566323      1.34061014882105     -4.81816168205069
  O   2.07204421798899     -1.83396275272963     -4.60027492165508
  O   1.89737618723019      1.79105533416635     -4.91452884389921
  H   7.07689960609058     -0.27650564029400     -0.20398443325909
  H   7.08931280274403      0.19637239163367     -2.62400347859376
  H   5.90130669074711      0.27884267350458     -4.75269049860819
  H   4.68253908158111     -0.00514641867767     -6.96104994282067
  H   2.55125016526794     -0.34771567819726     -8.18213773739874
  H   0.03240114839041     -0.62221795111688     -8.13404360972556
  H   -2.44750580254427     -0.58400584823795     -8.09244252849255
  H   -4.55538760802401     -0.10343319357126     -6.93607639691035
  H   -5.86553277242293      0.20432708883472     -4.83030540996947
  H   -7.17685796888881      0.46770870132631     -2.59900011101101
  H   -7.19145756280285      0.69193772846331     -0.16779043876977
  H   -5.94949240392364      0.42194427724851      2.12541663404781
  H   -4.68807224763781     -0.18444083518160      4.26032982319549
  H   -2.58347803375891     -0.43581522461089      5.46523566795965
  H   -0.05137189068362     -0.31277316680821      5.51813391576522
  H   2.55244420160144     -0.53438017008263      5.46630944955100
  H   4.61587689425948     -0.77656146871655      4.17425068260019
  H   5.87452906622837     -0.65226880568095      1.88213511681871
  H   -0.87795890141158     -2.00163619424790     -1.03342954025775
  H   3.97265086843063      2.49113338747020      0.10117272780730
  H   -3.09831070524166     -1.85323212976439     -0.93004802391930
  H   0.41631484167893      2.09191577217703      1.37308859699523
  H   1.34267992483395      2.67766097290834     -1.01376708187121
  H   2.04686138151882     -2.24236380954176      2.40158805303087
  H   2.17883607482500      1.80682710073465     -5.85189433145105
  H   -2.03475633449885     -2.20169035671217     -3.30697960348905
  H   -3.53496674556787      1.98624645631194      1.03730925603756
  H   -0.13282268166691      1.60998975364794     -4.90816032244606
  H   0.78809881768859     -1.80861751163096      0.53411802227910
  H   2.77710208128160     -1.92599046749705     -5.27314903322718
  H   -1.11684862067129      1.49312008450788     -0.89171119194130
  H   2.96329138205339     -1.58195199645006     -2.74623193292704
