84
FINAL ENERGY	-2522.287712603478
  C   -2.51986104348483      0.08081942378553      4.37169712884820
  C   -1.25812069055114      0.50668052341000      3.64598235410820
  C   -1.23604607972403     -0.18908337173432      2.27940429486832
  C   -2.49579521935881      0.08315013019485      1.49765702662067
  C   -3.74923033070754      0.00826074657242      2.23071209706907
  C   -3.66821653532544     -0.13642826425969      3.68715737165344
  C   0.04921677412188      0.04080144329737      1.52620406957064
  C   0.03012428752021      0.07924574009728      0.07354728346130
  C   -1.21168101188058      0.12917470650426     -0.61960233332238
  C   -2.45604094050087      0.19257943692701      0.12732046659256
  C   1.21468114549950      0.11273734300214      2.23308339791825
  C   2.54332785169007      0.26238840945671      1.54520248280184
  C   2.50136659628982      0.04194909906625      0.05611731170261
  C   1.24495106668952      0.06332545889551     -0.64836065855086
  C   -1.23535560987207      0.16759756479126     -2.04016362518578
  C   -0.01048831715845      0.12673496130500     -2.77758461697935
  C   1.22707993860093      0.04923417110463     -2.08106955328844
  C   0.02960661816115      0.21178929176458      4.38447943467893
  C   1.20847589770892      0.08105620357030      3.69911627828796
  C   3.68980773716535     -0.14347263282750     -0.60268997823073
  C   3.68719936586296     -0.36504977459218     -2.05826814383240
  C   2.45289172303957     -0.06053457163605     -2.80956650466514
  C   2.48651133334211      0.02682989520872     -4.20841165903252
  C   1.23987503257877      0.10135705285511     -4.93815182686051
  C   -0.00174366021502      0.11152215121247     -4.22476397445442
  C   -2.49988154070958      0.18050838938592     -2.73563871941399
  C   -3.70280345961637      0.20087297898546     -2.07116391895207
  C   -3.70558307353883      0.45114461617424     -0.61675183376367
  C   -5.03700334342969      0.36735982747256      0.14474217769166
  C   -4.95684762459794      0.02058490232642      1.56655293792837
  C   -2.53181303744487      0.28460171492677     -4.23492619959257
  C   -1.21913255241175      0.10297731218839     -4.94155149858888
  C   4.95982457134812     -0.15330578353256      0.13181090007951
  C   4.95178468010483     -0.30977270666449      1.49207331924149
  C   3.64634372413775     -0.59736877281903      2.20590202342019
  C   5.02864061131173     -0.28845278363247     -2.80562923805867
  C   4.95886976352430      0.06969549472449     -4.22661553636690
  C   3.76907434300249      0.11226729197896     -4.90109047242277
  C   1.21015583481330      0.13320625571853     -6.36526834047471
  C   -0.00394592059169      0.07376685762098     -7.04373877716929
  C   -1.23635131830335      0.04242636368531     -6.34551394547204
  C   -3.66843700877363     -0.51834013330567     -4.86760785571143
  C   -4.95950079014721     -0.22133700554857     -4.13807378551668
  C   -4.96758852089891      0.04669629250634     -2.79135915849067
  C   3.76473632186048      0.34521877018469     -6.37117262272353
  C   2.48158865156070      0.31847696105893     -7.11017994994768
  C   6.22989935086369      0.02216858468688     -1.98973390929944
  C   6.19277563001375      0.03098049354211     -0.63461130790986
  C   -2.53006133833498     -0.01183813053889     -7.02774681765525
  C   -3.68671352971181     -0.23755822353521     -6.35773162800321
  C   -6.20734810409674     -0.00813655495032     -2.01404201814199
  C   -6.24682980553566      0.06259101890891     -0.66096234123804
  C   2.50420504792545     -0.06923350419640      4.36848182912016
  C   3.65152636620594     -0.33740487432268      3.69707046235268
  H   7.11456493725242      0.19740453202997     -0.06579290611619
  H   7.16648432207108      0.22047889741103     -2.52302237290582
  H   5.89268519604751      0.30689135547527     -4.74929521850996
  H   4.68959656489542      0.07143597541113     -6.89998242567753
  H   2.47998165212772      0.02540047752188     -8.17034304115622
  H   -0.00881576669528      0.07905576410910     -8.13995628841768
  H   -2.53718698158669      0.10524544178126     -8.11799704649478
  H   -4.64102807489034     -0.31827959385463     -6.89263581860841
  H   -5.90394191866780     -0.42259732609342     -4.66061727115218
  H   -7.13175527631690     -0.19526422352928     -2.57240296412596
  H   -7.19053041142085     -0.08614286185610     -0.12409161328596
  H   -5.88292860470635     -0.22071179562878      2.10073900364796
  H   -4.59499139137819     -0.37342535091645      4.22319211290291
  H   -2.50017400430383      0.02084962342178      5.46692606236397
  H   0.02581867355845      0.23767384384369      5.48185485806890
  H   2.51588208609780      0.01515208456848      5.46184341974777
  H   4.59268009458575     -0.49046464956514      4.23800595196205
  H   5.89026649115173     -0.38034929889374      2.05329839928848
  O   3.42112711554196     -2.01650173279571      2.00792758011793
  H   2.64505745463793     -2.24937086210981      2.55354700367644
  H   2.88977288832826      1.31177946647832      1.70957390279821
  O   4.38902543406562     -1.55291119745574     -2.48548679319958
  O   3.15876437332563      1.56599237678754     -6.83696962809512
  O   -3.35148658315380     -1.92570529648741     -4.65969958095399
  H   -4.04657473602500     -2.44262364230453     -5.10723535638870
  H   -2.82922830123850      1.34259404225234     -4.43927113526364
  O   -1.31757364800186      1.93454197604713      3.37061218017433
  H   -1.41217805939583      2.38721927837827      4.22872720311584
  H   -1.25516120237910     -1.27613667420958      2.53128321639579
  O   -4.41750018154847      1.63935757918182     -0.21178833260900
