90
FINAL ENERGY	-2899.154087161837
  C   -2.56230968188672      0.07677044221837      4.45838506816372
  C   -1.26419884485285      0.07153516799934      3.78729458404921
  C   -1.28908208843078      0.16431837287812      2.33500808220310
  C   -2.46929477570651      0.20782011461630      1.59084891795135
  C   -3.73183411478208      0.05524861570607      2.28060561029018
  C   -3.72486561332178      0.04834337908274      3.70716895560742
  C   -0.01433478633803      0.41125210636073      1.64779288851948
  C   0.00849627611477      0.58579498038728      0.11799726836245
  C   -1.26533345193065      0.40181727721003     -0.57903447803473
  C   -2.45745083942227      0.28267052938342      0.12559125155713
  C   1.21023513416532     -0.16252476205351      2.24904690406612
  C   2.48764413843511      0.00179967665172      1.54069934643513
  C   2.46940581527491      0.09530917694845      0.10960548978035
  C   1.28007118344111      0.30495767609656     -0.57730940190333
  C   -1.23267970731997      0.08491883622169     -2.05218932730239
  C   0.01490157682032      0.52991257298810     -2.79812555740730
  C   1.34550851475382      0.53329122858863     -2.05486860215954
  C   -0.05803214454139      0.01511465909639      4.47691550061866
  C   1.19392001185431     -0.29708529945512      3.78232462061158
  C   3.74442287906105      0.00712196239197     -0.62098605763035
  C   3.74093048699407     -0.08714611708779     -2.00878650363294
  C   2.42056103478764     -0.29976721575017     -2.72011153792863
  C   2.49637999196794     -0.05008146031553     -4.20553903974509
  C   1.22323172009179     -0.22103335534881     -4.91410150203069
  C   -0.01661407123718      0.27697691638345     -4.25482011710662
  C   -2.50127005480554      0.53985770182739     -2.77374695818346
  C   -3.75437869525377      0.11566941549588     -2.02983164630955
  C   -3.71757232115002      0.08263356245234     -0.59260827230870
  C   -4.90670573231493     -0.16106432956177      0.13593874062251
  C   -4.90712716968535     -0.14225057146446      1.53823032372564
  C   -2.48946609913739      0.12257448576378     -4.24269554885001
  C   -1.30675534946390      0.01354100761791     -4.94428223644447
  C   4.99456475782278     -0.01388046862612      0.13490040903999
  C   4.92706953928356     -0.05643429495115      1.52876908846730
  C   3.68783711299710     -0.08808141334584      2.24661632025358
  C   4.96254619629648     -0.12650115374012     -2.76594253976955
  C   4.93358411434318     -0.14775233206562     -4.16639957831254
  C   3.69508305279295     -0.10875327877115     -4.89737183386503
  C   1.20128412325106     -0.35280082301486     -6.41901158190077
  C   -0.08554778884733     -0.10609549576216     -7.09873265927807
  C   -1.28581716147060     -0.07565084732921     -6.40195225823010
  C   -3.75773310873967      0.03557054307211     -4.92710316234555
  C   -4.93902506041367      0.02924461603913     -4.17298122819897
  C   -4.94887839465016      0.03277319408709     -2.75139460159093
  C   3.66457441883353     -0.09856986439434     -6.36426625754684
  C   2.51356590091592     -0.17779149601138     -7.08419700643723
  C   6.18798034327525     -0.10080270063694     -2.02466928966229
  C   6.23291672187627     -0.04471954449875     -0.64535693804432
  C   -2.56869308040533     -0.07190668372828     -7.07176224181865
  C   -3.74343079309454     -0.04400054313290     -6.36566241522138
  C   -6.25682749793458      0.04609914653326     -1.99560312725708
  C   -6.15065145208406     -0.60628164381331     -0.61556112317481
  C   2.51249305080675     -0.17500754191650      4.43124656016072
  C   3.66330960597057     -0.13308981843740      3.70364329164163
  H   7.14170096487900     -0.12162237916835     -2.56114416444506
  H   5.87843250508699     -0.17541446956815     -4.71922668687034
  H   4.62221185248921     -0.00002902716757     -6.88791594304178
  H   2.53300790716983     -0.09590197838471     -8.17632696817425
  H   -0.08887228837056     -0.03434044964631     -8.19189203611179
  H   -2.58228612356963     -0.12182427809268     -8.16562487102170
  H   -4.70312806345863     -0.08003570903909     -6.89286424100190
  H   -5.89964378781107     -0.01801084944786     -4.69925867536641
  H   -6.56049124201020      1.10556155033973     -1.86330024888671
  H   -7.04917132987774     -0.36191252819572     -0.02600150989966
  H   -5.84914137133591     -0.31548115567431      2.07103539276677
  H   -4.68780975205919     -0.00759498851102      4.23072941231021
  H   -0.05708392324835      0.11560996958948      5.56421479670044
  H   2.53653006122188     -0.08787689443692      5.52243213016205
  H   4.62669084143124     -0.07614577614815      4.22234094674893
  H   5.85087042468668     -0.09149129611297      2.10544340612983
  O   1.04654080913027     -1.43624535397068      2.86039400544866
  O   0.10426429266815      1.70459361017943      1.06088150601504
  O   -0.00100858246287      1.62997446338577     -3.72205485464530
  O   1.08839259021900     -1.52249003096684     -5.52161844714896
  C   7.62904213820597     -0.01568775179011     -0.10085451278256
  O   8.63032772320781     -0.15252927993200     -0.78426520914984
  O   7.72793964332387      0.20322480141619      1.23974029750216
  H   8.69128543866546      0.20294549528491      1.42379865216074
  O   -6.15789017545681     -2.03784466286772     -0.70471248030884
  H   -7.05716611400236     -0.45435113918084     -2.56668501350459
  H   -5.32293994866646     -2.29474067392013     -1.14117253494911
  C   -2.73038815750062      0.06037561005410      5.92590859911620
  O   -1.84520652827357      0.07975040153650      6.77123051813788
  H   -3.80983550319889      0.03334457027518      6.23898802592022
  O   -2.49814342832853      1.98939551826660     -2.68232785071345
  H   -3.30106611539820      2.29575159585881     -3.14415520718864
  H   -1.20683634022346     -1.02386143047177     -2.13974307162670
  O   2.00021281287077     -1.68901287540751     -2.55337722672451
  H   2.51658630966508     -2.21800149985206     -3.19074457577987
  H   1.69433163732535      1.58722558288170     -2.15684495227243
