105
FINAL ENERGY	-3691.178860802090
  C   -2.57833445819246      0.19694676918840      4.47563678325931
  C   -1.26942121942724      0.07926886976664      3.82798954142492
  C   -1.27307753562960     -0.05139808669140      2.33251716002132
  C   -2.53982895477233      0.03516687466421      1.57930519858676
  C   -3.82439410295342      0.11214003789240      2.32067272523018
  C   -3.75746746959195      0.19682355722170      3.74831833907427
  C   -0.00585139556747      0.36078702372573      1.64784124492051
  C   0.02562829867313      0.64960077473127      0.19324313940068
  C   -1.29361267017640      0.65635756151233     -0.58431193199394
  C   -2.57019489804315      0.46461380153812      0.14139250298795
  C   1.23136302585435     -0.12878441623852      2.31591346272384
  C   2.47992348903122      0.27155227896966      1.60429389753214
  C   2.44853495594517      0.13855914520065      0.12515782298415
  C   1.29704271976149      0.38686967867156     -0.55439654884465
  C   -1.23533321914989      0.12681393810910     -2.01651825513768
  C   -0.01834025726769      0.56385309192339     -2.79711241850128
  C   1.33011454478318      0.61170140698183     -2.05137553193258
  C   -0.07374846391709      0.02996089627987      4.48771355714034
  C   1.21713195201208     -0.23477737957055      3.79034747090392
  C   3.73120819806162     -0.22956549750753     -0.55120776669543
  C   3.69664755763717     -0.39663974576818     -2.03369998909925
  C   2.32994683552669     -0.30763568528036     -2.75589921485195
  C   2.44793675467619      0.21842142905193     -4.18491922730761
  C   1.19615737181442     -0.10226191365276     -4.94360094267724
  C   -0.07177708332934      0.29529024382102     -4.25860151389882
  C   -2.54487407777872      0.38492513859903     -2.80035053231412
  C   -3.72068879756140     -0.22533454474258     -2.03464318183638
  C   -3.79224606370497      0.02683736979679     -0.57443387981272
  C   -4.94226912740305     -0.20991743365151      0.13697920012797
  C   -4.97399658876574     -0.03729804839505      1.57687744789030
  C   -2.50477309444133     -0.08674402063657     -4.25361642887023
  C   -1.32185006078789     -0.11220286410756     -4.95927182097765
  C   5.03481085043124     -0.01317215846577      0.17404981114392
  C   5.01435653493083      0.14847903620447      1.52892082507294
  C   3.76164315198034      0.26788226670769      2.32130964581900
  C   4.95617846157834     -0.16434231802988     -2.79889712260107
  C   4.96388789407145      0.05093527826821     -4.14798901115908
  C   3.72203965289856      0.29191190376293     -4.91295578276458
  C   1.22212567494621     -0.27722606204767     -6.41034178676071
  C   -0.09682183203259     -0.19052899186095     -7.12855693792684
  C   -1.28239158934630     -0.25395706546069     -6.42004224535639
  C   -3.79546142833264     -0.09765900074986     -4.93158158419604
  C   -4.96135307442091     -0.22213597826342     -4.24814619321463
  C   -4.97383785103105     -0.48754525018966     -2.79111517394556
  C   3.68809395943436      0.13151510879020     -6.39238233007483
  C   2.55395455296232     -0.11330252630782     -7.07986770427419
  C   6.17631100772147     -0.15670356007861     -2.03098334619265
  C   6.24466897749153     -0.09331952042783     -0.65902952640749
  C   -2.61905020298335     -0.44543564184175     -7.11102596075451
  C   -3.75167273239780      0.27498653767645     -6.39148232066227
  C   -6.27850566681934     -0.37067675400500     -2.03298919864437
  C   -6.15375058439289     -0.80969685478180     -0.56440606057322
  C   2.50954344763590      0.02984250777055      4.54662047719187
  C   3.80404292454424     -0.23805325868072      3.76410070241408
  H   7.12805315427447     -0.15838261966723     -2.57248686364622
  H   5.92000728162252      0.16704618063373     -4.67154891245043
  H   4.64165980231285      0.20725874346587     -6.92663369770091
  H   2.59251176217756     -0.21017145195600     -8.16520008697475
  H   -2.57805317731754     -0.10130197542754     -8.15211422808843
  H   -4.71823940967811      0.02536258660155     -6.87361488594033
  H   -5.92307365599159     -0.13274341678158     -4.76578033036098
  H   -6.60225682045093      0.68535168242893     -2.09173269354144
  H   -7.07003700348792     -0.51454816300593     -0.02568320661197
  H   -5.94719602112119     -0.07827293002754      2.08008462152537
  H   -4.70343081429607      0.24094454226566      4.30342333069239
  H   -0.06330404353974      0.14316892813204      5.57469117981850
  H   2.49110591169465      1.08797690039994      4.85905338978879
  H   4.62637225518036      0.30620560261853      4.28001125008023
  H   5.95338156781383      0.24200275417441      2.07813639892249
  O   1.18168990833689     -1.41646453019852      2.92203130085236
  O   0.09767029212032      1.71028678310436      1.18385303531415
  O   -0.14838249047311      1.66732987987479     -3.72500645450912
  O   1.19141231459825     -1.43206476130381     -5.47066826235352
  C   7.65493696337457     -0.10419142942390     -0.14331021335151
  O   8.63932449370505      0.03794937227724     -0.84762348755380
  O   7.77401276029033     -0.32560791890018      1.19392425540218
  H   8.73929770741933     -0.31875827673958      1.36917992839753
  O   -6.09224051974225     -2.23238947687916     -0.45675370603411
  H   -7.05627182321187     -0.99264130656124     -2.50958220527605
  H   -5.28015402296434     -2.48263674313840     -0.94830220098693
  C   -2.74117496274307      0.28636961025832      5.94523985538099
  O   -1.85109775786791      0.30869031128350      6.78311041790875
  H   -3.81836235508528      0.34277284254418      6.26116400803556
  O   -2.84123218042600      1.78697705712244     -2.89319038423792
  H   -2.02799232003530      2.18510193693415     -3.27814592408133
  H   -1.11435604316559     -0.97094932654827     -1.91731429712003
  O   1.68945942878549     -1.57537815265132     -2.76966748551388
  H   2.20561840449800     -2.19281136416811     -3.32013790449427
  H   1.68739584079173      1.64971756799873     -2.19231583036588
  O   4.05672055673973     -1.63933323045267      3.78154859988201
  H   4.63992756717522     -1.85188303850943      3.02931634794402
  H   2.53929336785568     -0.58990547594655      5.45962717192772
  O   3.74753692233853     -1.55005468392978     -1.17743428099881
  O   -1.86936068453842     -1.24632058701951      1.78429399425936
  C   -0.12618315698663     -0.17034295556146     -8.61896698508833
  O   -0.87527404958936     -0.81154044832255     -9.33620685372493
  O   0.78657637975191      0.69755609417658     -9.14502021779706
  H   0.67421688771801      0.63407145797377    -10.11786076874358
  O   3.05433060654029      1.51923217936301      2.10047288914279
  O   3.00797641039461      1.50754252801127     -4.38451263384697
  O   -4.08570412476351     -1.58920654267715     -2.39630948361785
  O   -3.47191403323260      1.67779355370847     -6.50445901557815
  H   -2.83562967684831     -1.52999125493674     -7.15104348823563
  H   -3.91378410908733      2.12007406882482     -5.75577070671104
  O   -2.10233058505176      1.78376594716574     -0.25485176532944
