75
FINAL ENERGY	-2144.419046128222
  C   -2.49807960494383     -0.04243791590144      4.37344039630817
  C   -1.22907719863670     -0.02820004538530      3.68925838025348
  C   -1.23530937395889     -0.00632856104042      2.24689674767810
  C   -2.46974388055396      0.01815509674003      1.53297841724992
  C   -3.72139743111847      0.00165281384816      2.24429981015856
  C   -3.68462214815135     -0.03091383738761      3.68570154244302
  C   -0.00057844331308     -0.00797148549959      1.53525746872014
  C   -0.01219784734199      0.01623137322788      0.10062747425994
  C   -1.22729688980328      0.10238059090700     -0.58758540361844
  C   -2.46592735108465      0.07707322528344      0.10452381331118
  C   1.23789546770181     -0.00156267891452      2.24346591774564
  C   2.47968720318708      0.02882633303506      1.52432719475274
  C   2.48518807290682      0.02600983775079      0.09701254355140
  C   1.24791863065748     -0.00156774516379     -0.63124006695669
  C   -1.19479785510774      0.32415328190380     -2.07469194855485
  C   -0.03274693299282     -0.41319078687025     -2.74468728963621
  C   1.26335940434014     -0.09437862285061     -2.02856748390220
  C   -0.00142928312802     -0.03231167130363      4.36697999780724
  C   1.23444335130550     -0.01098415071387      3.67686478494451
  C   3.71957501399438      0.01826095114504     -0.61634472530500
  C   3.72048964344194     -0.01749457163428     -2.04208855212949
  C   2.48275543644721     -0.08433155520832     -2.75310786110314
  C   2.47558153379482     -0.09320576353663     -4.18676413625607
  C   1.22878815578391     -0.07218860285434     -4.90867825617454
  C   -0.00311413454121     -0.09875638852726     -4.22337487132523
  C   -2.50003807444292      0.09710838544773     -2.78534161936950
  C   -3.71059590053779      0.07087359751867     -2.06213442391323
  C   -3.70560600734955      0.08458787418575     -0.61984463053253
  C   -4.93805075647539      0.04470969315234      0.09864151409636
  C   -4.91983997000220      0.01778241721920      1.51535187639849
  C   -2.48805905994247      0.01132714472827     -4.18680134915761
  C   -1.22595610640377     -0.00040090518288     -4.90876709119914
  C   4.96547231679138      0.04682327316676      0.11008027854282
  C   4.93810855578777      0.06211896357542      1.51186062834770
  C   3.72300073616057      0.04435483004071      2.23771553439945
  C   4.96292130438889     -0.00399535441149     -2.76937776137012
  C   4.93160764072189     -0.02459241399597     -4.17198279742142
  C   3.71345201455249     -0.05096518618060     -4.89555776620970
  C   1.23175139381171      0.01265174161612     -6.34602032318370
  C   0.00179226177227      0.05474974415248     -7.03074464115944
  C   -1.22882647412476      0.05080576299731     -6.34692645199607
  C   -3.73053663836250     -0.01541320531523     -4.90922457943620
  C   -4.93893911807870     -0.01983166086206     -4.18649701815480
  C   -4.95834458571123      0.00578650254079     -2.77860288972317
  C   3.68351701020889     -0.00947862016507     -6.33700312430779
  C   2.49940094074531      0.02799612494740     -7.02877092729339
  C   6.19243507541738      0.03445353772528     -2.01639382561421
  C   6.19353281508793      0.05592274437829     -0.64514405785268
  C   -2.49708216176631      0.05379682345750     -7.03241987797625
  C   -3.68662207615557      0.00050987298891     -6.34990539110989
  C   -6.18175776905877     -0.01054575782363     -2.01908405780138
  C   -6.17218660721717      0.01294771785085     -0.64769106833980
  C   2.49734643841307      0.00716766770558      4.36278091437639
  C   3.68708673368158      0.03486315402043      3.67453831906214
  O   -0.22435734141358     -1.84972267953302     -2.69349190746522
  H   7.14029358455582      0.08133144405574     -0.09462803128581
  H   7.13849124297488      0.04429597169948     -2.56865237112910
  H   5.87622415551288     -0.00471133623167     -4.72737824970427
  H   4.63755790555668      0.00827546467294     -6.87507654575048
  H   2.50061515363220      0.07394291590325     -8.12332264661314
  H   0.00298778663442      0.08582715107539     -8.12641892206295
  H   -2.49280078367976      0.08287322258509     -8.12761491033188
  H   -4.63509860374096     -0.01440980123787     -6.89792380809401
  H   -5.88884315056192     -0.03744769991182     -4.73283255307964
  H   -7.13164999610237     -0.04540828645807     -2.56369271291783
  H   -7.11450325589313     -0.00508622864597     -0.08933599869251
  H   -5.87330078966123     -0.00195830262258      2.05546134381139
  H   -4.63627753368633     -0.04382987488304      4.22819529814692
  H   -2.49610556090748     -0.06327278545163      5.46874315590648
  H   0.00415610243095     -0.04624343610569      5.46286180775034
  H   2.49498662656217      0.00002950622100      5.45823718468359
  H   4.63772590836282      0.04776531298853      4.21878043338047
  H   5.88442825626523      0.08113764996129      2.06447480650076
  H   -0.16821220280273     -2.10142708236005     -1.75041738545472
  H   -0.95080897483567      1.40733828375048     -2.21403627392194
