39
 energy: -62.633572419111 gnorm: 0.000731686034 xtb: 6.2.3 (unknown)
C         0.02229068879455    1.39190847293540   -0.12077593860965
C        -1.26647263934243    3.53302041464886   -0.03837230815771
C         0.03743717500298    2.87575343947946   -0.40353489522689
C         1.21860123368361    3.57201448334296    0.27233215390861
H        -1.25127766156421    4.61019271038376    0.03140797904244
H         1.36387513995070    4.52985428700466   -0.23150675818360
C         1.21527866706458    0.70988038920681   -0.04813157292875
C         2.47130788134482    2.77126579071015    0.21020557048097
C         2.47567946397150    1.43199349408889    0.03186911984563
C         3.69111780436784    0.66005471878620    0.01054966355523
H         3.39907272091257    3.30204567302806    0.36965296277843
H         4.62480670344845    1.20417538340239    0.02429140900493
C         1.22687736122955   -0.71531483439245   -0.01972572389272
C         3.67584817154759   -0.68547928346535   -0.01089466220847
C         2.44430074770428   -1.42273733760593   -0.00931914123718
C         2.41968878959161   -2.82216556377459   -0.00536023325018
H         4.59817854947279   -1.24919219975124   -0.02131438267719
H         3.35750098587106   -3.36009695216044   -0.00099600201309
C         0.00422811384994   -1.42276475861858   -0.02972178440524
C         1.23149241260331   -3.51451354712232   -0.00497189315191
C         0.00409508823118   -2.83967255726403   -0.01480739398795
C        -1.24419593528472   -3.52065646869563   -0.00100995354524
H         1.23418844366971   -4.59559252763572    0.00492130188086
H        -1.23532139000215   -4.60178072213631    0.00871417298381
C        -1.21946268958795   -0.71477785773249   -0.03408062993443
C        -2.41793982279845   -2.84076166526237    0.00729742528245
C        -2.44826018756805   -1.41818103303490   -0.00617092958965
C        -3.64416510344368   -0.69071205659967    0.01307502379995
H        -3.36035984668815   -3.37032797433122    0.02510860745915
H        -4.58332244501816   -1.22516116507337    0.03377010464848
C        -1.21386883287632    0.69973746668323   -0.07312722079317
C        -3.63371830716816    0.68729143435653    0.02565727049852
C        -2.43711970000360    1.40122824307504   -0.01590344482076
C        -2.40394657659378    2.84258549159543    0.06525450168981
H        -4.56652276022134    1.23237492656093    0.06862325490892
H        -3.34166957175770    3.34769029062514    0.25264638940988
O         0.24352487490889    3.05691789840657   -1.81930302878885
H        -0.43798354992130    2.56598638983231   -2.29123839079502
H         0.97151600261850    3.78011710650347    1.32188937701975
