39
 energy: -69.649166603989 gnorm: 0.000535504396 xtb: 6.2.3 (unknown)
C         0.00384555160395    1.41869442780178    0.34008473020812
C        -1.28197134088314    3.57876675518675    0.02466931771068
C        -0.00514334510011    2.92270273654291    0.35927299154870
C         1.28369677844373    3.56582272826085    0.07295967591454
H        -1.26317074736679    4.65128831956134   -0.09488503262844
H         1.27752188137484    4.63773482040016   -0.05663114568004
C         1.26512063622080    0.69686928861448    0.10671675181515
C         2.41762585886219    2.85678754243967   -0.04437681381206
C         2.46063537144029    1.41421954636064   -0.00173400546493
C         3.65489032721623    0.68738026613032   -0.11896838577294
H         3.35190923522441    3.36667695783205   -0.23296274133716
H         4.58794105200529    1.22651792253205   -0.19743000407112
C         1.26512063622150   -0.69686928873442    0.10671675008397
C         3.65489032751667   -0.68738026609211   -0.11896841054918
C         2.46063537163424   -1.41421954654349   -0.00173401757779
C         2.41762585901316   -2.85678754260805   -0.04437682188559
H         4.58794105237902   -1.22651792224926   -0.19743002566543
H         3.35190923544561   -3.36667695784423   -0.23296274958962
C         0.00384555154413   -1.41869442787605    0.34008473102007
C         1.28369677826693   -3.56582272846754    0.07295967645256
C        -0.00514334536723   -2.92270273672576    0.35927299377307
C        -1.28197134105466   -3.57876675524807    0.02466932273676
H         1.27752188121762   -4.63773482055833   -0.05663114270758
H        -1.26317074754253   -4.65128831960295   -0.09488502635127
C        -1.22226583665428   -0.74879539784426   -0.16407458667184
C        -2.43549197888599   -2.89023244472908   -0.04721942010951
C        -2.50027597239765   -1.45438843451175   -0.05127299284216
C        -3.64715724830026   -0.70759812963015   -0.07691960949918
H        -3.36909224167496   -3.41682049547770   -0.18596748093457
H        -4.60090875850834   -1.21498769375764   -0.04798313389333
C        -1.22226583675756    0.74879539791551   -0.16407458773314
C        -3.64715724835168    0.70759812977624   -0.07691961242103
C        -2.50027597245380    1.45438843463676   -0.05127299559608
C        -2.43549197886158    2.89023244483779   -0.04721942489973
H        -4.60090875858624    1.21498769385230   -0.04798313635932
H        -3.36909224167226    3.41682049566348   -0.18596748568852
O        -1.01773354350037   -0.00000000059376   -1.33961604789498
O        -0.08149245021095   -2.12922541886535    1.53652994890986
O        -0.08149245150020    2.12922541961502    1.53652994746314
