39
 energy: -62.613376515212 gnorm: 0.000408103969 xtb: 6.2.3 (unknown)
C        -0.05550834809477    1.39107275092943    0.40853149921715
C        -1.22909681214664    3.50930073041837   -0.04270015416552
C        -0.02899383798054    2.87112506282396    0.08497893255489
C         1.23394732226496    3.52152503685022    0.08455951406510
H        -1.24934872185802    4.58697990409535   -0.13528068458706
H         1.24367518052785    4.60177646424898    0.02880279700558
C         1.23749728388425    0.68194119073783    0.08772074089967
C         2.40125330134520    2.82936061067743    0.10314799247962
C         2.43451362444267    1.39525230880785    0.06057874507587
C         3.64355149080641    0.67764423509829   -0.06016874592670
H         3.34620495097840    3.35351508356589    0.08977932965267
H         4.57288181259030    1.22879054302925   -0.09404305237893
C         1.22357897101310   -0.71061792191965   -0.00937657022174
C         3.64806076427156   -0.68849730965082   -0.10804690157183
C         2.44491284769315   -1.42129686450115   -0.07340577596391
C         2.41236433019037   -2.83799766690970   -0.06210395834243
H         4.58288103171043   -1.22836206883495   -0.16571173883912
H         3.35170524409863   -3.37144175332090   -0.10722231785091
C        -0.01803264474894   -1.43195795650143   -0.00716803009911
C         1.23742218273808   -3.52005771449091    0.02880652098121
C        -0.00805847668093   -2.84442491232948    0.05138658386010
C        -1.24223330064232   -3.52314894547459    0.09293846647456
H         1.23518739122446   -4.60047051397370    0.06731763335731
H        -1.23928896631911   -4.60277336192342    0.14657287475598
C        -1.23093402903397   -0.74790561280431   -0.09624278274330
C        -2.42404901401427   -2.83664352379376    0.06008755878685
C        -2.44384804385257   -1.43027486350717   -0.05352172313968
C        -3.66834085631747   -0.68483690619985   -0.08743368106307
H        -3.36455225644322   -3.36771786749596    0.10176384756569
H        -4.59422426745675   -1.24180267788975   -0.05032908551997
C        -1.19843838660354    0.72704906926009   -0.34478039460740
C        -3.68862845994458    0.67122671772685   -0.09766694691188
C        -2.49856125325361    1.44466842239405   -0.12142854839628
C        -2.45955860527072    2.80608539113919   -0.03397787438141
H        -4.63048080042614    1.20037324752315   -0.04639731691715
H        -3.37902385220113    3.37010330411645    0.02994192873872
O        -0.29956132247752    1.24482720068023    1.81806840251461
H         0.42839652113112    1.65972850025733    2.29321794459162
H        -0.95257199514414    0.85488266714124   -1.41819502894986
