37
 energy: -61.612754490375 gnorm: 0.000955794403 xtb: 6.2.3 (unknown)
C         0.01121158532576    1.40916396331155   -0.17412055549420
C        -1.24925361041100    3.49517915379251    0.16012313910052
C         0.01095833330280    2.83476253988629    0.00827506031730
C         1.20064902185448    3.51054012936405    0.16303555256708
H        -1.23677027239381    4.56716689530407    0.29441333530705
H         1.21851430934345    4.49396749645191    0.60626358366643
C         1.20674390349018    0.69434746414891   -0.23224951546270
C         2.44404339744257    2.92603214093432   -0.22998093355150
C         2.47307974610604    1.38424958167401   -0.44582264847762
C         3.69623241217848    0.63680195337081   -0.18084175992450
H         3.36517137684525    3.39875812305205    0.10433284624665
H         4.62739667126943    1.17847258986640   -0.25242314439204
C         1.21961749748049   -0.71462030891516   -0.06963621581740
C         3.66280931926298   -0.68310120474347    0.07117445814650
C         2.43441626930520   -1.41791842025137    0.06466672832432
C         2.40528557823461   -2.81524123439320    0.18064487539797
H         4.57933228548876   -1.22865851198769    0.24640512444095
H         3.34064649729872   -3.34676006212347    0.28407799022700
C        -0.00670206107112   -1.42112810586923   -0.05054267957297
C         1.22094318552706   -3.50584578443126    0.15187852837832
C        -0.00746537744942   -2.83196951670127    0.03859893283717
C        -1.25151420023093   -3.51480754466879    0.01803941776791
H         1.21815238212947   -4.58398019857443    0.22674652421597
H        -1.24350294353621   -4.59469708619261    0.06337209329665
C        -1.22958581881819   -0.71164973558767   -0.10990793848141
C        -2.42610097049492   -2.83522887349767   -0.05199911647650
C        -2.45528139856217   -1.41736092851484   -0.09420780211624
C        -3.65861561415986   -0.68947412242464   -0.09064655813563
H        -3.36749429526769   -3.36651633539699   -0.06108607511898
H        -4.59419603856914   -1.23070400689635   -0.09435178887823
C        -1.22557578317655    0.70306225481082   -0.11431636175417
C        -3.65218091362876    0.67897386026333   -0.04806098349430
C        -2.44618808168902    1.40147951421575   -0.03732383934630
C        -2.41840396973862    2.82118423254304    0.09044968435368
H        -4.58361222837110    1.22621793408465   -0.01078148809269
H        -3.36134138645272    3.34463630309382    0.16170730712812
O         2.52908119213542    2.32686585100171   -1.48590577713244
