39
 energy: -62.625349629800 gnorm: 0.000756491770 xtb: 6.2.3 (unknown)
C         0.01489527348692    1.41940802832757   -0.09323102937226
C        -1.23692114281476    3.50902605667797    0.02295252250477
C         0.00978734153567    2.83152777988218   -0.00102037294599
C         1.24091721986134    3.50909357241702    0.05854314153383
H        -1.23279404852926    4.58870693755022    0.07505051628844
H         1.23671165117249    4.58854995436978    0.11694652472829
C         1.23951159692347    0.73882076687479   -0.12899728727992
C         2.42629411838803    2.82281224119192    0.04782307766466
C         2.44494446389042    1.42020674605464   -0.04637603529254
C         3.68541861680671    0.66084362053851   -0.05507007609129
H         3.36478085687655    3.35538109438313    0.10741681032070
H         4.60380251677886    1.20976174663678   -0.20443840084347
C         1.28178202859057   -0.74003725877692   -0.41194253570567
C         3.68937638921960   -0.65753509626904    0.13933157691751
C         2.40639453293214   -1.38931316707851    0.39382911363788
C         2.41413636312501   -2.86631257469603    0.13943064371672
H         4.60556424777292   -1.22707532208747    0.16289779147176
H         3.36551576387949   -3.37499097757742    0.16297737134865
C        -0.02007868870054   -1.44285287989642   -0.12894828051713
C         1.27039638985742   -3.52207943186690   -0.05495791564478
C        -0.00746078585161   -2.82748433716916   -0.04632810509499
C        -1.23148789076827   -3.51263967026699    0.04778487923524
H         1.25423446439319   -4.59188374241911   -0.20432720624148
H        -1.22346019441814   -4.59167830976120    0.10736875743069
C        -1.22179451318986   -0.72259847597864   -0.09321069000403
C        -2.41851622595298   -2.82921258218307    0.05847148460427
C        -2.44728992694764   -1.42423624820235   -0.00105124593827
C        -3.65736822558554   -0.68330542630240    0.02289317317768
H        -3.35544720652467   -3.36529437978340    0.11685668119331
H        -4.59034483248063   -1.22672014848468    0.07491860278206
C        -1.22030578767691    0.70454744033864   -0.10385656521798
C        -3.64982671679260    0.67479541860365   -0.00954530689660
C        -2.43151038422922    1.40383607143033   -0.05071997020746
C        -2.40930149526294    2.82344863851145   -0.00951205287353
H        -4.57719640928072    1.22964763392235    0.01520049476431
H        -3.35350046187866    3.34914824986300    0.01526450517804
O         1.59079498260325   -0.91849662420552   -1.80548660611725
H         0.88631850940461   -0.51179273825459   -2.32109511287322
H         2.15412760938669   -1.24362260631415    1.46115712665903
