36
 energy: -57.601966095259 gnorm: 0.000327473892 xtb: 6.2.3 (unknown)
C         0.00000000000000    1.41685061040245   -0.00000000000001
C        -1.23924548024268    3.50912102331976    0.00002151953999
C         0.00000000000000    2.82750752143681   -0.00000000000001
C         1.23924548024268    3.50912102331976   -0.00002151954000
H        -1.23196153341293    4.59021160418122    0.00003067712468
H         1.23196153341293    4.59021160418122   -0.00003067712469
C         1.22702548326535    0.70842445290062   -0.00000470194135
C         2.41936709154593    2.82777719815218   -0.00003146016124
C         2.44868926619041    1.41375272393793   -0.00001653532125
C         3.65860931482601    0.68134469093977   -0.00001002278709
H         3.35925925265314    3.36201688424237   -0.00005051023945
H         4.59122049247843    1.22819637474672   -0.00002043103223
C         1.22702548326534   -0.70842445290062    0.00000470194133
C         3.65860931482601   -0.68134469093977    0.00001002278710
C         2.44868926619041   -1.41375272393792    0.00001653532125
C         2.41936709154593   -2.82777719815218    0.00003146016124
H         4.59122049247843   -1.22819637474672    0.00002043103226
H         3.35925925265314   -3.36201688424237    0.00005051023947
C         0.00000000000000   -1.41685061040245   -0.00000000000002
C         1.23924548024268   -3.50912102331976    0.00002151954000
C        -0.00000000000000   -2.82750752143681   -0.00000000000001
C        -1.23924548024268   -3.50912102331976   -0.00002151954000
H         1.23196153341293   -4.59021160418122    0.00003067712468
H        -1.23196153341293   -4.59021160418122   -0.00003067712469
C        -1.22702548326534   -0.70842445290062   -0.00000470194135
C        -2.41936709154593   -2.82777719815218   -0.00003146016124
C        -2.44868926619041   -1.41375272393793   -0.00001653532125
C        -3.65860931482601   -0.68134469093977   -0.00001002278709
H        -3.35925925265314   -3.36201688424237   -0.00005051023945
H        -4.59122049247843   -1.22819637474672   -0.00002043103223
C        -1.22702548326534    0.70842445290062    0.00000470194133
C        -3.65860931482601    0.68134469093977    0.00001002278710
C        -2.44868926619041    1.41375272393793    0.00001653532125
C        -2.41936709154593    2.82777719815218    0.00003146016124
H        -4.59122049247843    1.22819637474671    0.00002043103226
H        -3.35925925265314    3.36201688424237    0.00005051023946
