37
 energy: -61.602173535618 gnorm: 0.000831796111 xtb: 6.2.3 (unknown)
C         0.05364997985795    1.46450391910937    0.52788251568636
C        -1.22519757730737    3.51273498895037    0.12233153408024
C         0.00547475457583    2.87380550779033    0.16014624564401
C         1.23417624370818    3.50782579432448   -0.14470881348085
H        -1.24287670384319    4.58332640666606   -0.02468866401778
H         1.21739851620636    4.57194519919631   -0.33181678410807
C         1.26205414298387    0.70338236227201    0.23240647980712
C         2.40486296103596    2.81736970231871   -0.19516733915993
C         2.44556795677164    1.40139294093879   -0.04728904497338
C         3.64431477106363    0.66673920262694   -0.17665313535308
H         3.33332057084467    3.33326351770949   -0.39204430802857
H         4.56324886179120    1.20509397792803   -0.36098611104869
C         1.23175626769864   -0.70175237236046    0.24342281403846
C         3.64758033673810   -0.69296372358890   -0.06702010300774
C         2.44671122003815   -1.41467415901643    0.10159505654699
C         2.41918258120787   -2.82866212818336    0.08154240224242
H         4.57307216025221   -1.24518684744771   -0.14938352281865
H         3.35871539863411   -3.35989422593590    0.02397829523452
C        -0.00815026513931   -1.41763882901383    0.24355220111347
C         1.24009003289337   -3.50944417918394    0.08188258185238
C         0.00176570624596   -2.82631838701403    0.10212181055859
C        -1.22372420465633   -3.50550358864307   -0.06599872795933
H         1.23040322850906   -4.58873446694005    0.02462920273040
H        -1.20826018678898   -4.58315382093023   -0.14775895667879
C        -1.24018638631281   -0.74133385407903    0.23236824649916
C        -2.39961325405862   -2.82284266813363   -0.17597035171739
C        -2.43641511227426   -1.41730709947597   -0.04731406419027
C        -3.64222092693702   -0.67400909813363   -0.19588680074570
H        -3.32532661379287   -3.34954237639387   -0.35999723259683
H        -4.55317634988790   -1.22009826874851   -0.39300254773807
C        -1.29513956469482    0.68578068473982    0.52772417431822
C        -3.65474639052853    0.68507838319218   -0.14574914019731
C        -2.49143581805814    1.43214867776817    0.15962231863815
C        -2.42945865122668    2.81741577120819    0.12201640035672
H        -4.56778321568262    1.23167879447033   -0.33335808301961
H        -3.34773934410986    3.36800882972992   -0.02529756816959
O        -0.63449512575762    1.09866543228317    1.69286901966272
