37
Coordinates from ORCA-job OPT_R_5_KETO4 E -996.625319096158
  C      -0.006268      1.430902     -0.000001
  C      -1.216810      3.520151      0.000001
  C      -0.010279      2.843851      0.000002
  C       1.254984      3.606108      0.000005
  H      -1.195233      4.600156      0.000003
  O       1.268361      4.836668      0.000009
  C       1.212191      0.718398     -0.000001
  C       2.458043      2.813085      0.000003
  C       2.452803      1.441411     -0.000000
  C       3.667454      0.681448     -0.000003
  H       3.394319      3.352988      0.000003
  H       4.599953      1.227133     -0.000004
  C       1.209370     -0.684013     -0.000001
  C       3.658180     -0.669413     -0.000004
  C       2.434623     -1.405160     -0.000002
  C       2.404300     -2.796820     -0.000000
  H       4.583628     -1.228077     -0.000006
  H       3.337429     -3.342363     -0.000001
  C      -0.024224     -1.392152     -0.000000
  C       1.205588     -3.487787      0.000002
  C      -0.012236     -2.815895      0.000002
  C      -1.260473     -3.512938      0.000004
  H       1.208858     -4.568564      0.000004
  H      -1.235085     -4.593427      0.000008
  C      -1.237640     -0.688957     -0.000002
  C      -2.434504     -2.851436      0.000002
  C      -2.487047     -1.414640     -0.000003
  C      -3.667730     -0.745186     -0.000005
  H      -3.373856     -3.385322      0.000004
  H      -4.599560     -1.293534     -0.000003
  C      -1.240561      0.726855     -0.000004
  C      -3.766523      0.731853     -0.000005
  C      -2.454045      1.452624     -0.000005
  C      -2.423827      2.832281     -0.000001
  H      -4.354777      1.049861      0.871425
  H      -3.353127      3.384748     -0.000003
  H      -4.354779      1.049863     -0.871422
37
Coordinates from ORCA-job OPT_R_5_KETO4 E -996.633781172328
  C      -0.005157      1.444531     -0.000000
  C      -1.223147      3.551702      0.000000
  C      -0.007079      2.869872      0.000001
  C       1.270211      3.641025      0.000003
  H      -1.196011      4.645778      0.000001
  O       1.281536      4.883489      0.000006
  C       1.225199      0.726095     -0.000000
  C       2.483993      2.843351      0.000002
  C       2.479250      1.457271     -0.000000
  C       3.703421      0.690069     -0.000002
  H       3.430610      3.392799      0.000002
  H       4.649193      1.241008     -0.000003
  C       1.220713     -0.687821     -0.000000
  C       3.693122     -0.675140     -0.000002
  C       2.459213     -1.416387     -0.000001
  C       2.425805     -2.819306     -0.000000
  H       4.631202     -1.240036     -0.000004
  H       3.371258     -3.371641     -0.000001
  C      -0.025620     -1.404694      0.000000
  C       1.213762     -3.519474      0.000002
  C      -0.014783     -2.844318      0.000002
  C      -1.273376     -3.547656      0.000003
  H       1.217544     -4.614220      0.000003
  H      -1.248960     -4.642263      0.000005
  C      -1.249944     -0.697316     -0.000001
  C      -2.459955     -2.879868      0.000001
  C      -2.512101     -1.431619     -0.000002
  C      -3.702932     -0.754440     -0.000003
  H      -3.410701     -3.422532      0.000002
  H      -4.646385     -1.312065     -0.000002
  C      -1.250985      0.733107     -0.000002
  C      -3.796651      0.732731     -0.000003
  C      -2.475698      1.463975     -0.000003
  C      -2.441874      2.858037     -0.000001
  H      -4.395048      1.055948      0.877334
  H      -3.383069      3.418757     -0.000002
  H      -4.395054      1.055953     -0.877333
37
Coordinates from ORCA-job OPT_R_5_KETO4 E -996.634008510499
  C      -0.005296      1.446584      0.000000
  C      -1.223556      3.557432     -0.000000
  C      -0.006204      2.873635      0.000000
  C       1.272999      3.646498      0.000002
  H      -1.191834      4.652061     -0.000000
  O       1.281833      4.890815      0.000002
  C       1.227493      0.727284      0.000000
  C       2.489137      2.849444      0.000001
  C       2.484470      1.460312      0.000000
  C       3.710045      0.692064     -0.000001
  H       3.435331      3.400825      0.000001
  H       4.657179      1.241896     -0.000001
  C       1.222262     -0.687744      0.000000
  C       3.699503     -0.676370     -0.000001
  C       2.463939     -1.418122     -0.000000
  C       2.429424     -2.822595      0.000000
  H       4.638878     -1.240322     -0.000002
  H       3.375451     -3.375325     -0.000000
  C      -0.026219     -1.406337      0.000000
  C       1.214530     -3.525184      0.000001
  C      -0.015753     -2.849858      0.000001
  C      -1.275775     -3.554415      0.000001
  H       1.218873     -4.620549      0.000001
  H      -1.252548     -4.649677      0.000002
  C      -1.252305     -0.699074     -0.000000
  C      -2.465229     -2.885424      0.000000
  C      -2.516920     -1.435505     -0.000001
  C      -3.709670     -0.756341     -0.000002
  H      -3.415591     -3.429998      0.000000
  H      -4.652323     -1.316586     -0.000002
  C      -1.252822      0.734400     -0.000000
  C      -3.801239      0.732378     -0.000001
  C      -2.479754      1.466112     -0.000001
  C      -2.444714      2.863121     -0.000001
  H      -4.402810      1.057458      0.876030
  H      -3.386470      3.424348     -0.000002
  H      -4.402815      1.057462     -0.876026
37
Coordinates from ORCA-job OPT_R_5_KETO4 E -996.634024843574
  C      -0.005583      1.446551     -0.000000
  C      -1.223457      3.558001     -0.000001
  C      -0.006159      2.873440     -0.000000
  C       1.273192      3.646575     -0.000001
  H      -1.188812      4.652523     -0.000001
  O       1.280676      4.891052      0.000001
  C       1.227699      0.727273     -0.000000
  C       2.489812      2.850305      0.000000
  C       2.485075      1.460688      0.000000
  C       3.710519      0.692482      0.000000
  H       3.435493      3.402421      0.000000
  H       4.658178      1.241289      0.000000
  C       1.222185     -0.687344      0.000000
  C       3.700008     -0.676604      0.000000
  C       2.464561     -1.418221      0.000000
  C       2.429626     -2.822550      0.000000
  H       4.639972     -1.239444      0.000000
  H       3.375510     -3.375480      0.000000
  C      -0.026395     -1.406125      0.000000
  C       1.214253     -3.525715      0.000000
  C      -0.016032     -2.850530      0.000000
  C      -1.275963     -3.555051     -0.000000
  H       1.219052     -4.621015      0.000000
  H      -1.253723     -4.650273     -0.000000
  C      -1.252545     -0.699374     -0.000000
  C      -2.466001     -2.885879     -0.000001
  C      -2.517425     -1.436130     -0.000001
  C      -3.710401     -0.756407     -0.000001
  H      -3.415645     -3.431574     -0.000001
  H      -4.651992     -1.318271     -0.000002
  C      -1.253013      0.734625     -0.000000
  C      -3.801090      0.732135      0.000001
  C      -2.480196      1.466373     -0.000000
  C      -2.444865      2.863823     -0.000001
  H      -4.404157      1.058127      0.874864
  H      -3.386694      3.424872     -0.000001
  H      -4.404162      1.058131     -0.874858
37
Coordinates from ORCA-job OPT_R_5_KETO4 E -996.634032414206
  C      -0.005908      1.446254      0.000000
  C      -1.223444      3.557980     -0.000001
  C      -0.006311      2.872746     -0.000000
  C       1.272992      3.646061      0.000001
  H      -1.185396      4.652356     -0.000001
  O       1.279238      4.890557     -0.000002
  C       1.227726      0.727100      0.000001
  C       2.489871      2.850584     -0.000000
  C       2.485071      1.460800      0.000000
  C       3.710145      0.692729      0.000000
  H       3.435053      3.403370     -0.000001
  H       4.658464      1.240257      0.000000
  C       1.221994     -0.686971      0.000001
  C       3.699771     -0.676707      0.000001
  C       2.464779     -1.418245      0.000001
  C       2.429440     -2.822235      0.000000
  H       4.640542     -1.238052      0.000001
  H       3.375069     -3.375520      0.000001
  C      -0.026457     -1.405745      0.000000
  C       1.213907     -3.525708      0.000000
  C      -0.016176     -2.850678     -0.000000
  C      -1.275891     -3.554835     -0.000001
  H       1.219309     -4.620928     -0.000000
  H      -1.254974     -4.650016     -0.000001
  C      -1.252515     -0.699572      0.000000
  C      -2.466237     -2.885586     -0.000001
  C      -2.517419     -1.436282     -0.000000
  C      -3.710420     -0.756058     -0.000000
  H      -3.414993     -3.432678     -0.000002
  H      -4.650742     -1.319857     -0.000001
  C      -1.253034      0.734699      0.000000
  C      -3.800329      0.731951      0.000001
  C      -2.480193      1.466420      0.000000
  C      -2.444723      2.864024     -0.000001
  H      -4.404986      1.058897      0.873596
  H      -3.386733      3.424692     -0.000001
  H      -4.404990      1.058900     -0.873589
37
Coordinates from ORCA-job OPT_R_5_KETO4 E -996.634033223358
  C      -0.005939      1.446137     -0.000001
  C      -1.223540      3.557825     -0.000001
  C      -0.006425      2.872524     -0.000001
  C       1.272794      3.645880     -0.000004
  H      -1.184602      4.652177     -0.000002
  O       1.278950      4.890358      0.000001
  C       1.227723      0.727027     -0.000001
  C       2.489633      2.850482     -0.000001
  C       2.484866      1.460781     -0.000000
  C       3.709815      0.692728      0.000001
  H       3.434766      3.403341      0.000001
  H       4.658351      1.239878      0.000002
  C       1.221997     -0.686992     -0.000000
  C       3.699518     -0.676655      0.000001
  C       2.464731     -1.418292      0.000000
  C       2.429324     -2.822208      0.000000
  H       4.640580     -1.237513      0.000002
  H       3.374853     -3.375661      0.000001
  C      -0.026396     -1.405708     -0.000000
  C       1.213887     -3.525603     -0.000000
  C      -0.016128     -2.850579     -0.000001
  C      -1.275828     -3.554509     -0.000001
  H       1.219483     -4.620818     -0.000000
  H      -1.255351     -4.649701     -0.000001
  C      -1.252430     -0.699609     -0.000000
  C      -2.466126     -2.885273     -0.000001
  C      -2.517296     -1.436110     -0.000000
  C      -3.710240     -0.755796      0.000000
  H      -3.414636     -3.432794     -0.000002
  H      -4.650255     -1.320106     -0.000000
  C      -1.252996      0.734631     -0.000000
  C      -3.800074      0.731988      0.000002
  C      -2.480045      1.466361      0.000000
  C      -2.444636      2.863913     -0.000000
  H      -4.405025      1.059110      0.873368
  H      -3.386775      3.424375     -0.000000
  H      -4.405029      1.059113     -0.873361
37
Coordinates from ORCA-job OPT_R_5_KETO4 E -996.634033307449
  C      -0.005902      1.446104      0.000001
  C      -1.223628      3.557763     -0.000000
  C      -0.006486      2.872483      0.000001
  C       1.272672      3.645876      0.000006
  H      -1.184344      4.652116      0.000000
  O       1.278915      4.890349     -0.000004
  C       1.227744      0.727006      0.000001
  C       2.489470      2.850439      0.000000
  C       2.484754      1.460797      0.000000
  C       3.709678      0.692722     -0.000001
  H       3.434629      3.403268     -0.000002
  H       4.658321      1.239707     -0.000001
  C       1.222050     -0.687072      0.000001
  C       3.699417     -0.676602     -0.000000
  C       2.464708     -1.418345      0.000001
  C       2.429296     -2.822276      0.000000
  H       4.640620     -1.237242     -0.000001
  H       3.374777     -3.375817      0.000000
  C      -0.026343     -1.405764      0.000001
  C       1.213930     -3.525581      0.000000
  C      -0.016082     -2.850537      0.000000
  C      -1.275823     -3.554348     -0.000000
  H       1.219610     -4.620802      0.000000
  H      -1.255546     -4.649553     -0.000001
  C      -1.252392     -0.699635      0.000001
  C      -2.466070     -2.885121     -0.000001
  C      -2.517264     -1.435982     -0.000000
  C      -3.710177     -0.755650     -0.000001
  H      -3.414479     -3.432834     -0.000001
  H      -4.650098     -1.320134     -0.000002
  C      -1.252979      0.734568      0.000001
  C      -3.800040      0.732055      0.000000
  C      -2.479954      1.466326     -0.000000
  C      -2.444619      2.863851     -0.000001
  H      -4.405003      1.059201      0.873360
  H      -3.386853      3.424166     -0.000002
  H      -4.405005      1.059203     -0.873357
